  Page 1                                          2024/11/28 下午 08:08:11
  **********************************************************************
  *                             E P A N E T                            *
  *                     Hydraulic and Water Quality                    *
  *                     Analysis for Pipe Networks                     *
  *                           Version 2.2                              *
  **********************************************************************
  
  Input File: 113.04.25原方案.net
  
  
  
  Link - Node Table:
  ----------------------------------------------------------------------
  Link           Start          End                Length  Diameter
  ID             Node           Node                    m        mm
  ----------------------------------------------------------------------
  5              1              6                     400       300
  11             11             7                    1000       300
  12             12             8                    1200       200
  14             2              11                   1600       300
  2              3              12                    800       200
  3              7              3                    3200       300
  4              8              5                     500       300
  6              5              4                     300       300
  7              4              9                     300       300
  8              9              10                    500       300
  1              6              2                    #N/A      #N/A Pump
  
  Energy Usage:
  ----------------------------------------------------------------------
                    Usage   Avg.     Kw-hr      Avg.      Peak      Cost
  Pump             Factor Effic.     /m3        Kw        Kw      /day
  ----------------------------------------------------------------------
  1                100.00  75.00      0.21     37.72     37.74      0.00
  ----------------------------------------------------------------------
                                                Demand Charge:      0.00
                                                Total Cost:         0.00
  
  Node Results at 0:00 Hrs:
  ----------------------------------------------------------------------
  Node                Demand      Head  Pressure   Quality
  ID                     CMD         m         m          
  ----------------------------------------------------------------------
  2                     0.00    223.98     68.98      0.00
  6                     0.00    166.04     11.04      0.00
  7                     0.00    217.71     64.71      0.00
  8                     0.00    175.24     45.24      0.00
  11                    0.00    220.12      5.12      0.00
  12                    0.00    196.09     77.09      0.00
  3                     0.00    209.99     81.99      0.00
  5                   640.00    174.04     19.04      0.00
  9                   380.00    173.47     33.47      0.00
  10                  380.00    173.46     18.46      0.00


  Page 2                                                                
  Node Results at 0:00 Hrs: (continued)
  ----------------------------------------------------------------------
  Node                Demand      Head  Pressure   Quality
  ID                     CMD         m         m          
  ----------------------------------------------------------------------
  1                 -4305.96    167.00      0.00      0.00 Reservoir
  4                  2905.96    173.50      5.50      0.00 Tank
  
  Link Results at 0:00 Hrs:
  ----------------------------------------------------------------------
  Link                  Flow  VelocityUnit Headloss    Status
  ID                     CMD       m/s      m/km
  ----------------------------------------------------------------------
  5                  4305.96      0.71      2.41      Open
  11                 4305.96      0.71      2.41      Open
  12                 4305.96      1.59     17.38      Open
  14                 4305.96      0.71      2.41      Open
  2                  4305.96      1.59     17.38      Open
  3                  4305.96      0.71      2.41      Open
  4                  4305.96      0.71      2.41      Open
  6                  3665.96      0.60      1.79      Open
  7                   760.00      0.12      0.10      Open
  8                   380.00      0.06      0.03      Open
  1                  4305.96      0.00    -57.94      Open Pump
  
  Node Results at 1:00 Hrs:
  ----------------------------------------------------------------------
  Node                Demand      Head  Pressure   Quality
  ID                     CMD         m         m          
  ----------------------------------------------------------------------
  2                     0.00    224.17     69.17      0.00
  6                     0.00    166.04     11.04      0.00
  7                     0.00    217.95     64.95      0.00
  8                     0.00    175.82     45.82      0.00
  11                    0.00    220.34      5.34      0.00
  12                    0.00    196.51     77.51      0.00
  3                     0.00    210.30     82.30      0.00
  5                  1440.00    174.62     19.62      0.00
  9                   855.00    174.16     34.16      0.00
  10                  855.00    174.10     19.10      0.00
  1                 -4287.69    167.00      0.00      0.00 Reservoir
  4                  1137.69    174.29      6.29      0.00 Tank
  


  Page 3                                                                
  Link Results at 1:00 Hrs:
  ----------------------------------------------------------------------
  Link                  Flow  VelocityUnit Headloss    Status
  ID                     CMD       m/s      m/km
  ----------------------------------------------------------------------
  5                  4287.69      0.70      2.39      Open
  11                 4287.69      0.70      2.39      Open
  12                 4287.69      1.58     17.24      Open
  14                 4287.69      0.70      2.39      Open
  2                  4287.69      1.58     17.24      Open
  3                  4287.69      0.70      2.39      Open
  4                  4287.69      0.70      2.39      Open
  6                  2847.69      0.47      1.12      Open
  7                  1710.00      0.28      0.44      Open
  8                   855.00      0.14      0.12      Open
  1                  4287.69      0.00    -58.13      Open Pump
  
  Node Results at 2:00 Hrs:
  ----------------------------------------------------------------------
  Node                Demand      Head  Pressure   Quality
  ID                     CMD         m         m          
  ----------------------------------------------------------------------
  2                     0.00    224.36     69.36      0.00
  6                     0.00    166.05     11.05      0.00
  7                     0.00    218.19     65.19      0.00
  8                     0.00    176.38     46.38      0.00
  11                    0.00    220.56      5.56      0.00
  12                    0.00    196.91     77.91      0.00
  3                     0.00    210.59     82.59      0.00
  5                   384.00    175.19     20.19      0.00
  9                   228.00    174.58     34.58      0.00
  10                  228.00    174.58     19.58      0.00
  1                 -4269.87    167.00      0.00      0.00 Reservoir
  4                  3429.87    174.59      6.59      0.00 Tank
  
  Link Results at 2:00 Hrs:
  ----------------------------------------------------------------------
  Link                  Flow  VelocityUnit Headloss    Status
  ID                     CMD       m/s      m/km
  ----------------------------------------------------------------------
  5                  4269.87      0.70      2.37      Open
  11                 4269.87      0.70      2.37      Open
  12                 4269.87      1.57     17.11      Open
  14                 4269.87      0.70      2.37      Open
  2                  4269.87      1.57     17.11      Open
  3                  4269.87      0.70      2.37      Open
  4                  4269.87      0.70      2.37      Open
  6                  3885.87      0.64      1.99      Open
  7                   456.00      0.07      0.04      Open
  8                   228.00      0.04      0.01      Open
  1                  4269.87      0.00    -58.31      Open Pump
  
