  Page 1                                          2024/11/30 ¤W¤È 07:26:36
  **********************************************************************
  *                             E P A N E T                            *
  *                     Hydraulic and Water Quality                    *
  *                     Analysis for Pipe Networks                     *
  *                           Version 2.2                              *
  **********************************************************************
  
  Input File: 1Pattern-simple.inp
  
  
  
  Link - Node Table:
  ----------------------------------------------------------------------
  Link           Start          End                Length  Diameter
  ID             Node           Node                    m        mm
  ----------------------------------------------------------------------
  2              1              2                    1000       100
  3              2              3                    1000       100
  4              3              5                    1000       100
  7              2              4                    1000       100
  1              6              1                    #N/A      #N/A Pump
  6              3              7                    #N/A       100 Valve
  
  Energy Usage:
  ----------------------------------------------------------------------
                    Usage   Avg.     Kw-hr      Avg.      Peak      Cost
  Pump             Factor Effic.     /m3        Kw        Kw      /day
  ----------------------------------------------------------------------
  1                100.00  75.00      0.22      0.54      0.54      0.00
  ----------------------------------------------------------------------
                                                Demand Charge:      0.00
                                                Total Cost:         0.00
  
  Node Results:
  ----------------------------------------------------------------------
  Node                Demand      Head  Pressure   Quality
  ID                     CMD         m         m          
  ----------------------------------------------------------------------
  1                     0.00     90.31     60.31      0.00
  2                    10.00     90.09     30.09      0.00
  3                    10.00     90.03     60.03      0.00
  4                    20.00     90.06     30.06      0.00
  7                     0.00     14.00      4.00      0.00
  6                   -59.54     30.00      0.00      0.00 Reservoir
  5                    19.54     90.00     10.00      0.00 Tank
  


  Page 2                                                                
  Link Results:
  ----------------------------------------------------------------------
  Link                  Flow  VelocityUnit Headloss    Status
  ID                     CMD       m/s      m/km
  ----------------------------------------------------------------------
  2                    59.54      0.09      0.22      Open
  3                    29.54      0.04      0.06      Open
  4                    19.54      0.03      0.03      Open
  7                    20.00      0.03      0.03      Open
  1                    59.54      0.00    -60.31      Open Pump
  6                     0.00      0.00     76.03    Active Valve
  
