  Page 1                                           2025/9/25 下午 06:46:53
  **********************************************************************
  *                             E P A N E T                            *
  *                     Hydraulic and Water Quality                    *
  *                     Analysis for Pipe Networks                     *
  *                           Version 2.2                              *
  **********************************************************************
  
  Input File: action_ms.net
  
  方案三
  總流量84.33萬CMD
  浮洲加壓站至板新專管完成
  鶯歌20000CMD
  土城patter=0.945
  
  Link - Node Table:
  ----------------------------------------------------------------------
  Link           Start          End                Length  Diameter
  ID             Node           Node                    m        mm
  ----------------------------------------------------------------------
  CHP125         39             Luchow01              300       600
  CHP126         Luchow01       Luchow02           488.50       800
  CHP128         Luchow02       Luchow03          1071.94       400
  CHP134         Bali15         BaLi01                700       600
  CHP139         WuGu01         WUGu10               1700       600
  CHP140         CH99           WuGu04            1054.00      1000
  CHP142         SC50           SC03              1096.69      1000
  CHP143         SC03           SC04               820.69      1100
  CHP144         SC04           SC05               953.13      1100
  CHP145         SC05           CH130               23.70       900
  CHP146         SC07           SC10                  750       700
  CHP147         SC06-1         SC07                   23       700
  CHP149         SC06-1         SC12               109.20       500
  CHP150         SC07           SC12               150.59       600
  CHP152         LuChow10       LuChow12           250.62       400
  CHP153         LuChow10       LuChow11           419.46      1350
  CHP154         LuChow11       LuChow13           663.18       500
  CHP155         LuChow13       CH96                  450       600
  CHP157         LuChow11       CH107              978.00       600
  CHP158         LuChow13       LuChow14           288.55       350
  CHP159         LuChow14       CH114              350.52       400
  CHP160         SC10           SC13               717.04       700
  CHP161         SC06-1         SC14               771.58       500
  CHP162         SC13           SC14               600.65       400
  CHP163         SC05           SC15                  660      1200
  CHP164         SC04           SC16               674.03       400
  CHP165         CH131          SC18              1023.18       600
  CHP166         SC15           SC19                 1080      1200
  CHP156         SC16           SC20              1229.49       450
  CHP167         SC18           SC19               547.99       600
  CHP168         SC19           SC20               688.01       400
  CHP169         SC20           SC21               848.82       500
  CHP170         SC03           SC22               496.87      1100


  Page 2                                                             方案三
  Link - Node Table: (continued)
  ----------------------------------------------------------------------
  Link           Start          End                Length  Diameter
  ID             Node           Node                    m        mm
  ----------------------------------------------------------------------
  CHP171         SC22           SC23               287.77      1100
  CHP172         SC23           SC21              1397.23       800
  CHP173         SC19           SC30                  550      1200
  CHP174         SC30           SC31                  200      1200
  CHP177         SC31           SC33                  610      1000
  CHP178         SC33           SC34                  812      1000
  CHP181         61             66                   3980      1200
  CHP183         WuGu17         WuGu18                265       350
  CHP184         WuGu04         WuGU05               1850      1000
  CHP185         WuGu18         TS01                 1314       700
  CHP191         78             21                 1928.3      1100
  CHP192         TS06           SC23               227.80      1100
  CHP193         TS02           TS07               605.92       800
  CHP194         SC23           TS25               554.61       800
  CHP195         CH121          SC28              1650.18      1100
  CHP141         SC21           SC24                  960       800
  CHP197         SC36           SC37                 1747       900
  CHP200         SL02           SL03                  579      1000
  CHP201         CH117          SL04                  179       900
  CHP202         SL04           33                    500      1100
  CHP203         SL03           SL06               503.85       500
  CHP204         SL05           SL07               681.19      1100
  CHP207         SL07           SL22              1311.12      1100
  CHP208         SL08           SC28               757.00       500
  CHP196         CH121          SC38               450.09      1100
  CHP205         SC38           SC28               801.31      1100
  CHP206         SC28           SC39               615.39       600
  CHP209         SC39           SC40                  780       500
  CHP210         SC40           SC37                 1450       450
  CHP211         SL05           34                   1645      1350
  CHP212         72             SL10              1023.39       600
  CHP213         SL10           69                    700      1750
  CHP214         SL11           SL12               933.01      1750
  CHP215         SL09           SL15                 2185      1350
  CHP217         CH120          93                 457.21      1350
  CHP219         SL16           SL17                14.09      1750
  CHP220         SL17           SL18              2090.89      1750
  CHP227         TC03           TC05                  798      1350
  CHP229         TC03           TC18              2785.54      1350
  CHP230         TC05           TC07               519.14       600
  CHP231         TC03           TC07              1364.27       600
  CHP233         TC07           TC09               723.71       600
  CHP234         CH151          9                 1085.82       400
  CHP235         TC09           TC11               781.79       600
  CHP236         TC11           TC10                  620       600
  CHP237         TC11           TC12               476.71       700
  CHP238         TC12           TC13               766.00       700


  Page 3                                                             方案三
  Link - Node Table: (continued)
  ----------------------------------------------------------------------
  Link           Start          End                Length  Diameter
  ID             Node           Node                    m        mm
  ----------------------------------------------------------------------
  CHP239         CH153          TC14               658.73       700
  CHP240         TC14           TC06                  160      1350
  CHP241         TC06           CH88                  290      1350
  CHP224         TC15           BC05               391.48      1350
  CHP228         BC05           BC06               557.15      1500
  CHP242         86             16                 506.80      1500
  CHP243         SL21           CH190              239.04      1500
  CHP244         SL12           SL02               329.44      1350
  CHP245         BC06           CH148              424.03       600
  CHP246         TC15           BC07               129.96      1350
  CHP248         CH147          BC07               486.34       600
  CHP249         BC07           CH118                 186      1350
  CHP250         BC07           BC10                  673      1100
  CHP247         BC48           CH87               329.89       700
  CHP251         BC10           BC11               613.54       500
  CHP252         BC11           BC12               320.37       500
  CHP253         27             BC15                  479      1100
  CHP254         BC15           BC16               669.56      1000
  CHP255         BC16           BC17                  370       800
  CHP257         BC17           BC18                  800       500
  CHP258         BC18           BC12               266.58       500
  CHP260         BC16           BC19               529.44      1000
  CHP262         BC19           BC20               627.78      1000
  CHP263         BC20           CH113              624.60      1000
  CHP266         BC16           BC22                 1390       700
  CHP268         BC17           BC24               669.12       600
  CHP269         BC24           BC23               571.41       600
  CHP256         51             BC25                  893      1100
  CHP279         BC23           BC33               290.34      1100
  CHP280         BC33           BC32               388.34       800
  CHP282         BC23           BC33               289.98       450
  CHP283         BC33           BC32               387.24       450
  CHP284         83             CH119              720.23      1200
  CHP285         CH137          CH82                  687      1350
  CHP288         BC17           BC38              1054.55      1100
  CHP289         BC38           CH83                  207      1350
  CHP290         CH83           CH84                   18       800
  CHP291         CH84           CH82                  645      1350
  CHP293         12             SC31                  541      1350
  CHP295         SC31           SC29                 1500      1000
  CHP296         SC29           SC27                  370       700
  CHP297         CH132          SC25                15.96       700
  CHP298         SC25           SC13               628.05       700
  CHP221         Banxin-Sulin   SL18              2364.30      1350
  CHP223         SL16           92                   2500      1750
  CHP312         CH101          CH89               446.24       800
  CHP313         TS07           CH89               211.26       800


  Page 4                                                             方案三
  Link - Node Table: (continued)
  ----------------------------------------------------------------------
  Link           Start          End                Length  Diameter
  ID             Node           Node                    m        mm
  ----------------------------------------------------------------------
  CHP314         CH89           CH90                49.74       900
  CHP316         SC25           SC42                    1       700
  CHP322         CH138          51                   1930      1200
  CHP326         中和平壓塔          CH94                 3622      2000
  CHP328         CH97           Puchan00             2090      2000
  CHP329         94             CH98              1639.83      1350
  CHP330         CH98           93                 749.36      1350
  CHP310         BaLi11         Bali12              15.35       800
  CHP311         BaLi11         WuGu02              21.59       600
  Puchan         Puchan         Puchan00            14.14      2000
  CHP323         TS06           CH103              561.48       900
  CHP331         CH104          CH90                14.27       900
  CHP332         Shizitou       Bali12               8.52       800
  CHP333         Bali13         Bali15              34.10       600
  CHP343         Luchow03       Luchow04           503.76       400
  CHP344         Luchow02       Luchow03          1071.34       400
  CHP345         Luchow01       Luchow02           489.63       400
  CHP347         LuChow11       LuChow13           660.75       400
  CHP349         LuChow10       LuChow11           418.48       400
  CHP350         LuChow10       LuChow11           418.40       500
  CHP351         WUGu10         WuGu01               1700       400
  CHP352         WUGu10         WuGu01               1700       400
  CHP353         WuGu17         WuGu03                886       600
  CHP354         WuGu17         WuGu03                886       350
  CHP355         WuGu18         WuGu17                265       600
  CHP356         WuGu18         TS01                 1314       500
  CHP359         CH132          SC25                15.99       400
  CHP360         SC30           SC19                  550      1000
  CHP361         SC19           SC15                 1080      1000
  CHP362         SC15           SC05                  660      1000
  CHP363         SC20           SC21               847.27       400
  CHP364         SC28           SC38               809.96       350
  CHP365         SC38           CH121              446.60       500
  CHP366         SL08           SC28               758.76       350
  CHP367         SL07           SL22              1311.93       400
  CHP368         SL05           SL07               675.55       500
  CHP370         SL04           33                    500       500
  CHP371         CH117          SL04                  179       500
  CHP372         SL03           CH117                  23       500
  CHP373         SL03           CH117                  23       900
  CHP377         CH118          BC08                  157      1200
  CHP378         BC07           BC10                  673       600
  CHP379         CH119          BC32                40.93      1000
  CHP381         BC16           BC17                  370       400
  CHP383         CH120          SL15               635.13      1100
  CHP384         CH120          SL15               629.88      1100
  CHP218         Puchan01       CH137                7.23      1350


  Page 5                                                             方案三
  Link - Node Table: (continued)
  ----------------------------------------------------------------------
  Link           Start          End                Length  Diameter
  ID             Node           Node                    m        mm
  ----------------------------------------------------------------------
  CHP358         WuGu01         WuGu20                300       600
  CHP385         WuGu221        WuGu02                300       600
  CHP388         TS06           TS20               550.47      1100
  CHP324         WuGu03         WUGu10               7.20       700
  CHP325         Luchow01       CH96                27.44       300
  CHP327         Luchow01       CH107               24.57       600
  CHP335         TC10           CH108              781.64       600
  CHP337         TC09           CH109              800.58       400
  CHP338         CH155          CH156             2072.70      1350
  CHP339         BC48           BC50               450.04       700
  CHP341         LuChow09       CH123              723.85       400
  CHP389         CH123          WuGu04            1075.89       800
  CHP390         CH124          TS02                  568       900
  CHP391         TS01           CH124                 615       500
  CHP401         SC34           SC35                  350      1100
  CHP127         TS02           CH101              910.41       500
  CHP294         3              CH115                 724       500
  CHP301         CH115          TS05                  879       900
  CHP340         CH101          CH115                1781       800
  CHP403         Luchow02       Luchow03          1070.72       800
  CHP404         CH114          Luchow02            36.08       300
  CHP405         TS25           TS07                41.04       800
  CHP406         26             CH129              711.61       600
  CHP407         CH129          LuChow10           546.76       600
  CHP408         CH130          SC06-1                465      1100
  CHP409         SC14           CH131               95.59       600
  CHP410         CH132          SC27               211.12       700
  CHP411         CH132          SC27               211.13       400
  CHP412         53             13                    700      1000
  CHP414         58             59                    550      2200
  CHP415         CH113          BC21               171.26      1000
  CHP416         BC20           CH113              626.42       400
  CHP417         BC19           BC20               628.89       500
  CHP418         BC19           BC16               529.65       700
  CHP423         83             CH138               98.33      1200
  CHP424         BC38           BC46               202.77      1100
  CHP425         BC46           BC43               358.68      1000
  CHP427         BC42           BC11               341.86      1100
  CHP428         BC43           BC42               630.91      1100
  CHP429         27             BC18                  841       500
  CHP431         BC43           BC44               174.49      1000
  CHP432         BC44           BC45               153.92       900
  CHP433         BC45           BC47               632.46       800
  CHP434         BC49           BC48               693.06       800
  CHP435         CH147          CH148              652.80       600
  CHP186         CH87           TC12                35.34       700
  CHP187         CH88           TC15                67.74      1350


  Page 6                                                             方案三
  Link - Node Table: (continued)
  ----------------------------------------------------------------------
  Link           Start          End                Length  Diameter
  ID             Node           Node                    m        mm
  ----------------------------------------------------------------------
  CHP259         CH82           CH68                   29      1000
  CHP265         TC18           TC06               116.46      1350
  CHP281         CH68           CH136                  15       900
  CHP303         CH136          CH141                 526      1200
  CHP307         CH141          CH34                  654       800
  CHP309         52             6                    1590      1200
  CHP426         CH153          TC13                35.00       700
  CHP439         Tuchen1-02     CH156             1223.18      1350
  CHP103         Banxin-BanChua CH164              456.42      1350
  CHP225         CH164          CH163             1604.18      1350
  CHP226         CH163          CH162              330.77      1350
  CHP304         CH162          CH161             1352.09      1350
  CHP336         CH161          CH160             1100.90      1350
  CHP440         CH160          CH159              446.00      1350
  CHP441         CH159          CH155             1898.84       300
  CHP442         Banxin-Sulin   94                2387.38      1750
  CHP437         SL23           SL08                69.32      1100
  CHP444         SL23           SL08                70.85       400
  CHP452         CH174          CH173              653.18      2200
  CHP453         CH173          CH175              913.17      2200
  CHP454         CH175          20                2500.96      2200
  CHP455         28             47                 1320.5      2200
  CHP461         CH181          CH182               24.91      2200
  CHP462         CH182          CH174              229.69      2200
  CHP463         SC50           ShinWu00            73.85      1000
  CHP466         Fuchow0        Fuchow              50.13      1750
  CHP468         68             SL11               501.28      1750
  CHP469         Fuchow01       CH188                 700      1100
  CHP471         CH190          SL12                17.00      1500
  CHP474         Tuchen1-02     TC03               251.64      1350
  CHP438         10             BC25                  278      1200
  CHP315         CH121          TS05                 6.53       500
  CHP318         板新淨水場          BanShin01            4.76      2400
  CHP348         板新淨水場          Banshin02            4.44      2400
  CHP436         BanShin01      Banshin02            4.01      2400
  CHP470         Banxin-Sulin   BanShin01           56.84      2000
  CHP475         Banshin02      Banxin-BanChua      60.22      2000
  CHP478         CH94           CH97                  500      2000
  CHP482         SL22           SL23              1208.54      1000
  CHP43          ShinWuTank     ShinWu00            11.08      1000
  CHP458         BC50           BC10               174.47       700
  CHP483         BC47           BC49                74.99       800
  CHP487         WuGu01         WuGu20                300       800
  CHP490         CH92           CH72               480.27       600
  CHP491         CH72           CH34               264.60       600
  CHP492         CH151          CH109              436.47       400
  CHP42          CH92           TC10                 1400       600


  Page 7                                                             方案三
  Link - Node Table: (continued)
  ----------------------------------------------------------------------
  Link           Start          End                Length  Diameter
  ID             Node           Node                    m        mm
  ----------------------------------------------------------------------
  CHP107         CH94           ChunHe01              110      1200
  CHP308         64             35                   1400      1200
  CHP481         CH99           WUGu10               5.78      1000
  CHP489         SL22           SL23              1211.21       400
  63             9              TC10                  700       400
  83             CH151          41                 224.50       300
  117            8              62                      1      1200
  118            KuanFu         63                   3.50        12
  1              BC21           11                 227.15      1000
  2              29             SC45                475.5      2200
  7              67             Fuchow0              2300      1500
  CHP446         CH167          CH169             1355.56      2200
  CHP447         CH169          CH172             2035.90      2200
  CHP448         CH172          CH170              346.31      2200
  CHP449         CH170          CH171              873.80      2200
  CHP450         CH171          CH168              919.63      2200
  8              2              77                      1      2200
  9              14             5                     120       600
  13             14             5                     120      1000
  14             39             Luchow01              300       600
  15             6              36                    592      1200
  12             4              CH121                7.79      1100
  16             TS05           CH121                9.45       900
  19             WuGu221        WuGu02                300       800
  20             BaLi01         BaLi00               1300       600
  22             SC12           CH125                1000       200
  23             SC12           CH125                1000       300
  24             CH125          SC11                  300       500
  25             CH125          SC11                  300      1350
  26             SC11           LuChow10                1       500
  27             SC11           LuChow10                1      1350
  28             徐匯中學           15                      1       800
  38             Luchow03       Luchow04           503.76       800
  39             SC39           SC40                  780       400
  40             SC40           SC37                 1450       800
  11             LuChow09       Luchow04             1500       600
  42             38             81                   1530      1000
  43             9              CH151                 840      1200
  46             五谷王北街          SC42                 1442       700
  47             LuChow09       26                      1       600
  18             CH84           CH83                   18       350
  54             CH83           BC38                  207       350
  55             27             BC08                  143      1100
  56             BC23           BC22                 1000       800
  57             BC23           BC22                 1000      1100
  58             SC24           SC33                  720      1000
  62             31             SC35                   45      1500


  Page 8                                                             方案三
  Link - Node Table: (continued)
  ----------------------------------------------------------------------
  Link           Start          End                Length  Diameter
  ID             Node           Node                    m        mm
  ----------------------------------------------------------------------
  65             60             SC36                 1700      1000
  66             SC03           SC05                 1797       600
  67             SC37           32                    103      1000
  68             76             SL02                 1230      1000
  69             33             SL05                   10      1100
  70             73             SL09                   93      1350
  71             34             SL04                 1944      1350
  72             TC14           TC05                 1640      1350
  73             35             52                    960      1200
  77             36             62                    184      1200
  78             37             84                    120      1200
  80             CH151          TC09                  733      1200
  81             TS01           38                     70      1000
  82             38             WuGU05                 70      1000
  84             7              79                   1260      1000
  89             82             WuGU05                  1      1000
  90             CH124          TS01                  615       700
  91             CH115          CH101                1781       500
  92             5              39                    225      1000
  32             20             40                      1      1350
  93             CH176          42                      1      1350
  94             20             28                      1      2200
  96             43             40                      1      1350
  97             44             42                      1      1350
  98             42             45                      1      1350
  99             46             12                      1      1350
  111            47             49                      1      1000
  114            49             50                      1      1000
  115            54             55                      1      1000
  119            55             56                      1      1000
  122            57             53                      1      1000
  124            CH177          55                      1      1000
  134            CH188          70                      1      1750
  138            75             SL21                    1      1200
  139            74             SL21                    1      1500
  146            泰山配水池          80                      1      1000
  148            47             29                      1      2200
  123            51             BC22                  100      1200
  125            CH108          TC11               302.21      1350
  149            CH108          TC07                 1715       600
  49             1              SC24                  165      1000
  50             30             1                     680      1000
  150            TS05           3                     155       500
  152            18             19                    821       500
  153            21             4                   178.2      1100
  155            19             24                    110       600
  156            24             22                   1750       600


  Page 9                                                             方案三
  Link - Node Table: (continued)
  ----------------------------------------------------------------------
  Link           Start          End                Length  Diameter
  ID             Node           Node                    m        mm
  ----------------------------------------------------------------------
  157            22             25                   1012       700
  127            85             31                      1      2200
  160            65             30                     84      2200
  59             86             BC06                  100       600
  164            86             89                    220      1500
  166            SC45           90                      1      1500
  168            91             88                   2700      1500
  163            CH98           87                   2200      1350
  169            87             Banxin-Sulin         1850       600
  170            87             CH163                1800      1350
  171            92             71                   2062      1750
  174            95             BaLi11                850       600
  175            Banxin-Sulin   96                      1      1750
  176            Fuchow01       97                      1      1500
  177            97             98                    252      1500
  178            98             99                   2230      1800
  179            99             100                  1662      1800
  180            100            101                  3793      1800
  181            101            103                   665      1800
  182            103            104                   736      1800
  183            104            105                   950      1800
  184            105            Banxin-Sulin           50      2200
  189            99             92                     10      1800
  Puchan01       埔墘加壓站          83                   #N/A      #N/A Pump
  Puchan02       埔墘加壓站          83                   #N/A      #N/A Pump
  Puchan03       埔墘加壓站          83                   #N/A      #N/A Pump
  Puchan05       埔墘加壓站          Puchan01             #N/A      #N/A Pump
  Puchan04       埔墘加壓站          Puchan01             #N/A      #N/A Pump
  Puchan06       埔墘加壓站          Puchan01             #N/A      #N/A Pump
  ChanSin1       CH103          CH104                #N/A      #N/A Pump
  ChanSin4       CH103          CH104                #N/A      #N/A Pump
  ChanSin2       CH103          CH104                #N/A      #N/A Pump
  85             23             Bali13               #N/A      #N/A Pump
  86             23             Bali13               #N/A      #N/A Pump
  87             23             Bali13               #N/A      #N/A Pump
  88             23             Bali13               #N/A      #N/A Pump
  100            BanShin01      Banxin-Sulin         #N/A      #N/A Pump
  60             BanShin01      Banxin-Sulin         #N/A      #N/A Pump
  孝義02           WuGu20         WuGu221              #N/A      #N/A Pump
  孝義03           WuGu20         WuGu221              #N/A      #N/A Pump
  101            BanShin01      Banxin-Sulin         #N/A      #N/A Pump
  102            BanShin01      Banxin-Sulin         #N/A      #N/A Pump
  103            BanShin01      Banxin-Sulin         #N/A      #N/A Pump
  104            BanShin01      Banxin-Sulin         #N/A      #N/A Pump
  105            Banshin02      Banxin-BanChua       #N/A      #N/A Pump
  106            Banshin02      Banxin-BanChua       #N/A      #N/A Pump
  107            Banshin02      Banxin-BanChua       #N/A      #N/A Pump


  Page 10                                                            方案三
  Link - Node Table: (continued)
  ----------------------------------------------------------------------
  Link           Start          End                Length  Diameter
  ID             Node           Node                    m        mm
  ----------------------------------------------------------------------
  108            Banshin02      Banxin-BanChua       #N/A      #N/A Pump
  109            Banshin02      Banxin-BanChua       #N/A      #N/A Pump
  110            Banshin02      Banxin-BanChua       #N/A      #N/A Pump
  ChanSin3       CH103          CH104                #N/A      #N/A Pump
  120            41             48                   #N/A      #N/A Pump
  121            41             48                   #N/A      #N/A Pump
  KuanFu7        光復加壓站          CH181                #N/A      #N/A Pump
  KuanFu6        光復加壓站          CH181                #N/A      #N/A Pump
  KuanFu4        光復加壓站          CH181                #N/A      #N/A Pump
  KuanFu3        光復加壓站          CH181                #N/A      #N/A Pump
  KuanFu2        光復加壓站          CH181                #N/A      #N/A Pump
  KuanFu5        光復加壓站          CH181                #N/A      #N/A Pump
  KuanFu1        光復加壓站          CH181                #N/A      #N/A Pump
  SinWu01        新五路加壓站         ShinWu01             #N/A      #N/A Pump
  SinWu02        新五路加壓站         ShinWu01             #N/A      #N/A Pump
  SinWu03        新五路加壓站         ShinWu01             #N/A      #N/A Pump
  SinWu04        新五路加壓站         ShinWu01             #N/A      #N/A Pump
  Fuchow4        浮洲加壓站          Fuchow01             #N/A      #N/A Pump
  Fuchow3        浮洲加壓站          Fuchow01             #N/A      #N/A Pump
  Fuchow2        浮洲加壓站          Fuchow01             #N/A      #N/A Pump
  Fuchow5        浮洲加壓站          Fuchow01             #N/A      #N/A Pump
  Fuchow1        浮洲加壓站          Fuchow01             #N/A      #N/A Pump
  Fuchow6        浮洲加壓站          Fuchow01             #N/A      #N/A Pump
  Tuchen1-1      ChunHe01       ChunHe02             #N/A      #N/A Pump
  Tuchen1-2      ChunHe01       ChunHe02             #N/A      #N/A Pump
  Tuchen1-3      ChunHe01       ChunHe02             #N/A      #N/A Pump
  64             清水加壓站          37                   #N/A      #N/A Pump
  74             清水加壓站          37                   #N/A      #N/A Pump
  75             清水加壓站          37                   #N/A      #N/A Pump
  76             清水加壓站          37                   #N/A      #N/A Pump
  79             清水加壓站          37                   #N/A      #N/A Pump
  3              WuGu20         WuGu221              #N/A      #N/A Pump
  4              WuGu20         WuGu221              #N/A      #N/A Pump
  5              WuGu20         WuGu221              #N/A      #N/A Pump
  6              WuGu20         WuGu221              #N/A      #N/A Pump
  17             新五路加壓站         ShinWu01             #N/A      #N/A Pump
  36             WuGu20         WuGu221              #N/A      #N/A Pump
  37             WuGu20         WuGu221              #N/A      #N/A Pump
  51             光復加壓站          CH181                #N/A      #N/A Pump
  52             清水加壓站          37                   #N/A      #N/A Pump
  21             新五路加壓站         7                    #N/A      #N/A Pump
  35             新五路加壓站         7                    #N/A      #N/A Pump
  41             新五路加壓站         7                    #N/A      #N/A Pump
  44             新五路加壓站         7                    #N/A      #N/A Pump
  143            CH181          CH182                #N/A      2200 Valve
  61             ChunHe02       64                   #N/A      1200 Valve
  30             13             SC34                 #N/A      1000 Valve


  Page 11                                                            方案三
  Link - Node Table: (continued)
  ----------------------------------------------------------------------
  Link           Start          End                Length  Diameter
  ID             Node           Node                    m        mm
  ----------------------------------------------------------------------
  31             CH177          11                   #N/A      1000 Valve
  33             15             14                   #N/A       800 Valve
  10             74             16                   #N/A      1500 Valve
  34             CH114          Luchow02             #N/A       300 Valve
  29             40             12                   #N/A      1350 Valve
  45             43             44                   #N/A      1350 Valve
  53             45             46                   #N/A      1350 Valve
  95             CH176          10                   #N/A      1350 Valve
  112            49             53                   #N/A      1000 Valve
  113            50             54                   #N/A      1000 Valve
  116            56             57                   #N/A      1000 Valve
  126            58             SC45                 #N/A      2200 Valve
  128            60             30                   #N/A      1000 Valve
  129            61             SC35                 #N/A      1200 Valve
  130            66             75                   #N/A      1200 Valve
  131            67             SL21                 #N/A      1500 Valve
  132            CH188          68                   #N/A      1750 Valve
  133            70             69                   #N/A      1750 Valve
  135            SL10           71                   #N/A      1750 Valve
  136            72             SL09                 #N/A      1750 Valve
  137            73             34                   #N/A      1350 Valve
  140            32             76                   #N/A      1000 Valve
  141            CH168          63                   #N/A      2200 Valve
  142            77             CH167                #N/A      2200 Valve
  144            78             TS20                 #N/A      1100 Valve
  145            80             81                   #N/A      1000 Valve
  147            ShinWu01       82                   #N/A      1000 Valve
  48             84             9                    #N/A      1200 Valve
  151            18             3                    #N/A       500 Valve
  154            18             21                   #N/A       500 Valve
  158            25             SC24                 #N/A       700 Valve
  159            83             CH137                #N/A      1750 Valve
  161            31             65                   #N/A      2200 Valve
  162            59             85                   #N/A      2200 Valve
  165            90             91                   #N/A      1500 Valve
  167            88             89                   #N/A      1500 Valve
  173            SL17           93                   #N/A      1350 Valve
  


  Page 12                                                            方案三
  Energy Usage:
  ----------------------------------------------------------------------
                    Usage   Avg.     Kw-hr      Avg.      Peak      Cost
  Pump             Factor Effic.     /m3        Kw        Kw      /day
  ----------------------------------------------------------------------
  Puchan01           0.00   0.00      0.00      0.00      0.00      0.00
  Puchan02         100.00  75.00      0.09    344.46    346.81      0.00
  Puchan03         100.00  75.00      0.09    265.14    265.19      0.00
  Puchan05           0.00   0.00      0.00      0.00      0.00      0.00
  Puchan04           0.00   0.00      0.00      0.00      0.00      0.00
  Puchan06         100.00  75.00      0.09    265.14    265.19      0.00
  ChanSin1           0.00   0.00      0.00      0.00      0.00      0.00
  ChanSin4           0.00   0.00      0.00      0.00      0.00      0.00
  ChanSin2           0.00   0.00      0.00      0.00      0.00      0.00
  85               100.00  75.00      0.11     39.46     39.46      0.00
  86               100.00  75.00      0.11     39.46     39.46      0.00
  87                 0.00   0.00      0.00      0.00      0.00      0.00
  88               100.00  75.00      0.11     39.46     39.46      0.00
  100                0.00   0.00      0.00      0.00      0.00      0.00
  60                 0.00   0.00      0.00      0.00      0.00      0.00
  孝義02               0.00   0.00      0.00      0.00      0.00      0.00
  孝義03               0.00   0.00      0.00      0.00      0.00      0.00
  101                0.00   0.00      0.00      0.00      0.00      0.00
  102                0.00   0.00      0.00      0.00      0.00      0.00
  103                0.00   0.00      0.00      0.00      0.00      0.00
  104                0.00   0.00      0.00      0.00      0.00      0.00
  105                0.00   0.00      0.00      0.00      0.00      0.00
  106                0.00   0.00      0.00      0.00      0.00      0.00
  107                0.00   0.00      0.00      0.00      0.00      0.00
  108                0.00   0.00      0.00      0.00      0.00      0.00
  109                0.00   0.00      0.00      0.00      0.00      0.00
  110                0.00   0.00      0.00      0.00      0.00      0.00
  ChanSin3         100.00  75.00      0.18      0.00      0.00      0.00
  120              100.00  75.00      0.13     19.77     19.77      0.00
  121                0.00   0.00      0.00      0.00      0.00      0.00
  KuanFu7            0.00   0.00      0.00      0.00      0.00      0.00
  KuanFu6            0.00   0.00      0.00      0.00      0.00      0.00
  KuanFu4          100.00  75.00      0.18    763.90    764.44      0.00
  KuanFu3          100.00  75.00      0.18    763.90    764.44      0.00
  KuanFu2          100.00  75.00      0.18    763.90    764.44      0.00
  KuanFu5          100.00  75.00      0.18    763.90    764.44      0.00
  KuanFu1          100.00  75.00      0.18    763.90    764.44      0.00
  SinWu01            0.00   0.00      0.00      0.00      0.00      0.00
  SinWu02          100.00  75.00      0.10    123.12    124.03      0.00
  SinWu03            0.00   0.00      0.00      0.00      0.00      0.00
  SinWu04            0.00   0.00      0.00      0.00      0.00      0.00
  Fuchow4          100.00  75.00      0.15    452.85    452.86      0.00
  Fuchow3            0.00   0.00      0.00      0.00      0.00      0.00
  Fuchow2          100.00  75.00      0.15    452.85    452.86      0.00
  Fuchow5          100.00  75.00      0.15    452.85    452.86      0.00
  Fuchow1            0.00   0.00      0.00      0.00      0.00      0.00
  Fuchow6          100.00  75.00      0.15    452.85    452.86      0.00


  Page 13                                                            方案三
  Energy Usage: (continued)
  ----------------------------------------------------------------------
                    Usage   Avg.     Kw-hr      Avg.      Peak      Cost
  Pump             Factor Effic.     /m3        Kw        Kw      /day
  ----------------------------------------------------------------------
  Tuchen1-1        100.00  75.00      0.11    108.16    108.16      0.00
  Tuchen1-2        100.00  75.00      0.11    108.16    108.16      0.00
  Tuchen1-3        100.00  75.00      0.11    134.21    134.21      0.00
  64               100.00  75.00      0.05     39.79     39.81      0.00
  74                 0.00   0.00      0.00      0.00      0.00      0.00
  75               100.00  75.00      0.05     39.79     39.81      0.00
  76                 0.00   0.00      0.00      0.00      0.00      0.00
  79               100.00  75.00      0.05     39.79     39.81      0.00
  3                  0.00   0.00      0.00      0.00      0.00      0.00
  4                  0.00   0.00      0.00      0.00      0.00      0.00
  5                  0.00   0.00      0.00      0.00      0.00      0.00
  6                  0.00   0.00      0.00      0.00      0.00      0.00
  17                 0.00   0.00      0.00      0.00      0.00      0.00
  36                 0.00   0.00      0.00      0.00      0.00      0.00
  37                 0.00   0.00      0.00      0.00      0.00      0.00
  51                 0.00   0.00      0.00      0.00      0.00      0.00
  52               100.00  75.00      0.05     39.79     39.81      0.00
  21                 0.00   0.00      0.00      0.00      0.00      0.00
  35                 0.00   0.00      0.00      0.00      0.00      0.00
  41               100.00  75.00      0.17      0.00      0.00      0.00
  44               100.00  75.00      0.17      0.00      0.00      0.00
  ----------------------------------------------------------------------
                                                Demand Charge:      0.00
                                                Total Cost:         0.00
  
  Node Results at 0:00 Hrs:
  ----------------------------------------------------------------------
  Node                Demand      Head  Pressure   Quality
  ID                     CMD         m         m          
  ----------------------------------------------------------------------
  CH34               2130.00     28.37     19.17      0.00
  CH72                  0.00     28.05     19.85      0.00
  Luchow01           5940.00      9.56      7.56      0.00
  Luchow02          12420.00      9.43      7.68      0.00
  Luchow03           6480.00      9.43      7.63      0.00
  Luchow04           2700.00      9.45      7.65      0.00
  WuGu01                0.00     21.48     17.92      0.00
  WuGu02                0.00     24.19     15.36      0.00
  BaLi01            19608.00     54.07     43.40      0.00
  BaLi00             5160.00     53.88     52.05      0.00
  WuGu03                0.00     21.48     20.88      0.00
  WuGu04                0.00     21.56     16.56      0.00
  WuGU05              400.00     22.34     20.34      0.00
  SC03               4000.00     20.13     18.52      0.00
  SC04              12800.00     20.16     17.99      0.00
  SC05              18400.00     20.32     18.32      0.00
  SC06-1            18400.00     20.09     16.09      0.00


  Page 14                                                            方案三
  Node Results at 0:00 Hrs: (continued)
  ----------------------------------------------------------------------
  Node                Demand      Head  Pressure   Quality
  ID                     CMD         m         m          
  ----------------------------------------------------------------------
  SC10               4800.00     19.82     18.62      0.00
  SC07                  0.00     20.08     19.88      0.00
  SC11               9180.00      9.56      7.46      0.00
  SC12                  0.00     20.07     18.07      0.00
  LuChow09              0.00     10.12      7.79      0.00
  LuChow10              0.00      9.56      7.46      0.00
  LuChow12              0.00      9.56      8.76      0.00
  LuChow11              0.00      9.56      5.56      0.00
  LuChow13          10800.00      9.28      7.59      0.00
  LuChow14           9720.00      8.84      7.31      0.00
  SC13               4800.00     19.73     18.53      0.00
  SC14              12000.00     19.80     19.60      0.00
  SC15              12800.00     20.61     19.17      0.00
  SC16               9600.00     19.82     18.46      0.00
  SC18              12000.00     20.20     17.00      0.00
  SC19              13600.00     21.23     17.62      0.00
  SC21               8800.00     21.29     19.29      0.00
  SC20               6400.00     20.89     18.89      0.00
  SC22               8800.00     20.20     19.60      0.00
  SC23               3200.00     20.27     17.80      0.00
  SC24               5600.00     23.16     20.94      0.00
  SC30                  0.00     21.78     16.97      0.00
  SC31                  0.00     22.27     20.16      0.00
  SC33                  0.00     22.68     20.71      0.00
  SC34                  0.00     22.68     19.76      0.00
  SC35                  0.00     39.99     37.96      0.00
  SC36               8800.00     27.98     21.38      0.00
  SL21                  0.00     38.54     33.93      0.00
  WuGu18             3200.00     21.21     15.01      0.00
  WuGu17             3200.00     21.24     18.04      0.00
  TS01               2400.00     21.19     16.99      0.00
  TS02               9600.00     19.50     14.30      0.00
  TS05              20000.00     20.86     14.58      0.00
  TS06              21600.00     20.27     18.27      0.00
  TS07                  0.00     19.62     19.42      0.00
  SC28              10400.00     21.46     13.86      0.00
  SC37               7200.00     32.37     24.67      0.00
  SL02               5400.00     38.54     29.54      0.00
  SL03                  0.00     41.26     30.45      0.00
  SL04               4500.00     42.46     32.46      0.00
  SL05               6300.00     42.51     32.65      0.00
  SL06               5400.00     41.06     30.98      0.00
  SL07                  0.00     41.63     30.63      0.00
  SL08               8000.00     37.75     20.45      0.00
  SC38               4000.00     21.05     13.45      0.00
  SC39               4000.00     25.18     17.58      0.00
  SC40               4000.00     30.67     23.37      0.00


  Page 15                                                            方案三
  Node Results at 0:00 Hrs: (continued)
  ----------------------------------------------------------------------
  Node                Demand      Head  Pressure   Quality
  ID                     CMD         m         m          
  ----------------------------------------------------------------------
  SL09               7200.00     44.49     25.74      0.00
  SL10               5400.00     53.09     35.42      0.00
  SL11                  0.00     38.54     23.54      0.00
  SL12               5400.00     38.54     28.14      0.00
  SL15               4500.00     49.86     21.86      0.00
  SL16                  0.00     52.25     23.82      0.00
  SL17                  0.00     52.25     27.65      0.00
  SL18                  0.00     52.38     18.38      0.00
  TC03              16065.00     29.14     14.14      0.00
  TC05               3780.00     29.16     13.56      0.00
  TC06                  0.00     29.14     20.42      0.00
  TC07               7560.00     31.44     18.24      0.00
  TC09               7560.00     41.21     28.21      0.00
  TC10               4725.00     26.60     17.40      0.00
  TC11               7560.00     26.56     17.36      0.00
  TC12              12285.00     26.65     14.57      0.00
  TC13              14175.00     27.39     17.36      0.00
  TC14              14175.00     29.13     19.55      0.00
  TC15              16065.00     29.18     20.58      0.00
  BC05                  0.00     29.75     21.15      0.00
  BC06                  0.00     30.23     22.15      0.00
  BC07              17010.00     29.10     21.13      0.00
  BC08                  0.00     29.00     21.40      0.00
  BC10              14200.00     28.96     17.54      0.00
  BC11              13490.00     28.56     18.76      0.00
  BC12                  0.00     28.51     21.31      0.00
  BC15              15620.00     28.70     22.10      0.00
  BC16               8520.00     28.49     21.55      0.00
  BC17               4970.00     28.49     21.21      0.00
  BC18              10650.00     28.47     21.27      0.00
  BC19               4260.00     28.46     21.46      0.00
  BC20               4260.00     28.43     21.43      0.00
  BC21                  0.00     28.42     24.61      0.00
  BC22              21300.00     28.18     22.49      0.00
  BC23              12070.00     28.20     22.60      0.00
  BC24              12070.00     28.17     21.97      0.00
  BC25               7810.00     23.14     19.31      0.00
  BC32              36210.00     28.44     20.94      0.00
  BC33                  0.00     28.24     22.64      0.00
  CH82               9230.00     28.67     20.56      0.00
  BC38               8520.00     28.59     20.01      0.00
  CH83                  0.00     28.60     20.82      0.00
  CH84                  0.00     28.62     20.68      0.00
  SC29               6400.00     22.20     14.20      0.00
  SC27               4000.00     22.19     18.99      0.00
  SC25               4000.00     19.70     16.50      0.00
  CH89                  0.00     19.66     18.46      0.00


  Page 16                                                            方案三
  Node Results at 0:00 Hrs: (continued)
  ----------------------------------------------------------------------
  Node                Demand      Head  Pressure   Quality
  ID                     CMD         m         m          
  ----------------------------------------------------------------------
  CH90                  0.00     19.66     17.66      0.00
  SC42                  0.00     19.70     16.50      0.00
  CH97                  0.00     19.81     11.81      0.00
  CH98                  0.00     52.40     22.40      0.00
  Bali15                0.00     56.01     47.18      0.00
  BaLi11                0.00     28.52     19.69      0.00
  CH101              7200.00     19.75     18.55      0.00
  Puchan01              0.00     28.87     21.87      0.00
  Puchan00         242918.40     18.69      8.69      0.00
  CH103                 0.00     20.27     20.27      0.00
  CH104                 0.00     68.67     66.67      0.00
  Bali12                0.00     28.51      0.01      0.00
  Bali13                0.00     56.10     32.10      0.00
  CH115              6400.00     20.51     16.31      0.00
  CH117                 0.00     41.40     30.59      0.00
  CH118                 0.00     29.06     21.46      0.00
  CH119                 0.00     28.49     21.02      0.00
  CH120                 0.00     51.08     25.08      0.00
  Banxin-Sulin      20000.00     52.92     12.32      0.00
  CH121              8800.00     20.87     14.59      0.00
  WuGu221               0.00     22.02     16.72      0.00
  WuGu20              430.00     21.48     16.18      0.00
  Banxin-BanChua        0.00     52.38     11.78      0.00
  TS20                  0.00     20.40     20.40      0.00
  WUGu10             4000.00     21.48     20.88      0.00
  CH96                  0.00      9.38      7.38      0.00
  CH107                 0.00      9.56      7.56      0.00
  CH108              7560.00     26.56     15.36      0.00
  CH109                 0.00     41.46     21.46      0.00
  BC48               7100.00     28.68     17.08      0.00
  CH123                 0.00     21.00     21.00      0.00
  CH124              7200.00     19.48     11.28      0.00
  CH125                 0.00      9.56      9.56      0.00
  CH114                 0.00      9.25      7.50      0.00
  TS25                800.00     19.62     19.42      0.00
  CH129                 0.00      9.81      7.81      0.00
  CH130                 0.00     20.29     18.29      0.00
  CH131                 0.00     19.83     19.63      0.00
  CH132                 0.00     22.19     18.99      0.00
  SC45                  0.00     52.65     48.65      0.00
  CH137                 0.00     28.87     21.87      0.00
  CH138                 0.00     28.70     21.70      0.00
  BC46                  0.00     28.59     19.87      0.00
  BC43                  0.00     28.58     18.80      0.00
  BC42                  0.00     28.57     19.97      0.00
  BC44                  0.00     28.59     18.81      0.00
  BC45                  0.00     28.59     18.12      0.00


  Page 17                                                            方案三
  Node Results at 0:00 Hrs: (continued)
  ----------------------------------------------------------------------
  Node                Demand      Head  Pressure   Quality
  ID                     CMD         m         m          
  ----------------------------------------------------------------------
  BC47                  0.00     28.63     17.88      0.00
  BC49                  0.00     28.64     17.89      0.00
  CH147                 0.00     29.28     23.08      0.00
  CH148             10650.00     29.52     21.02      0.00
  CH87                  0.00     28.68     18.48      0.00
  CH88                  0.00     29.17     20.57      0.00
  TC18                  0.00     29.14     19.89      0.00
  CH113              7100.00     28.42     24.39      0.00
  CH68                  0.00     28.66     20.55      0.00
  CH136                 0.00     28.66     20.55      0.00
  CH141              4970.00     28.61     20.61      0.00
  CH151              3780.00     41.60     24.60      0.00
  CH153                 0.00     27.48     17.45      0.00
  CH155              4725.00     29.13      5.24      0.00
  CH156             14175.00     29.12     10.87      0.00
  Tuchen1-02         7560.00     29.14     16.54      0.00
  CH159                 0.00     52.34     24.34      0.00
  CH160              1890.00     52.35     23.27      0.00
  CH161                 0.00     52.36     25.76      0.00
  CH162                 0.00     52.38     20.19      0.00
  CH163                 0.00     52.38     19.78      0.00
  CH164                 0.00     52.38     11.78      0.00
  SL23               4500.00     37.81     20.51      0.00
  CH168                 0.00     17.80     11.80      0.00
  CH173                 0.00     57.56     53.56      0.00
  CH174                 0.00     58.29     53.29      0.00
  CH175                 0.00     56.60     54.60      0.00
  CH176                 0.00     22.73     19.84      0.00
  CH177                 0.00     28.42     24.03      0.00
  CH181                 0.00     58.65     52.65      0.00
  CH182                 0.00     58.65     52.65      0.00
  SC50                  0.00     19.66     17.66      0.00
  ShinWu01              0.00     22.34     20.34      0.00
  Fuchow0          282190.00     33.41     23.41      0.00
  Fuchow01              0.00     55.42     45.42      0.00
  CH188                 0.00     53.37     37.77      0.00
  CH190                 0.00     38.54     29.01      0.00
  BanShin01             0.00     42.50      0.20      0.00
  Banshin02             0.00     42.50      0.20      0.00
  CH94                  0.00     20.08     15.08      0.00
  SL22              14400.00     39.75     28.75      0.00
  ShinWu00          34918.00     19.62     17.62      0.00
  BC50                  0.00     28.89     18.39      0.00
  ChunHe01              0.00     20.02     14.02      0.00
  ChunHe02              0.00     51.56     45.56      0.00
  CH92               4725.00     27.47     16.47      0.00
  CH99                  0.00     21.48     20.88      0.00


  Page 18                                                            方案三
  Node Results at 0:00 Hrs: (continued)
  ----------------------------------------------------------------------
  Node                Demand      Head  Pressure   Quality
  ID                     CMD         m         m          
  ----------------------------------------------------------------------
  9                     0.00     42.02     14.02      0.00
  41                    0.00     41.04     24.04      0.00
  48                 3780.00     75.63     58.63      0.00
  52                    0.00     50.13     39.13      0.00
  62                73482.70     48.82     20.82      0.00
  63               471750.30     17.80     11.80      0.00
  64                    0.00     51.56     45.56      0.00
  CH167                 0.00     22.67     13.67      0.00
  CH169                 0.00     21.48     10.48      0.00
  CH172                 0.00     19.68     19.58      0.00
  CH171                 0.00     18.61     11.61      0.00
  CH170                 0.00     19.38     13.38      0.00
  5                     0.00      9.97      6.97      0.00
  6                     0.00     49.27     40.07      0.00
  4                  4000.00     20.87     14.59      0.00
  7                     0.00     50.00     48.00      0.00
  10                    0.00     22.73     19.84      0.00
  11                    0.00     28.42     24.03      0.00
  12                    0.00     22.73     19.84      0.00
  13                    0.00     22.68     19.76      0.00
  14                    0.00     10.00      7.00      0.00
  15                    0.00     10.00      7.00      0.00
  16                    0.00     38.55     30.35      0.00
  26                 2700.00     10.12      7.79      0.00
  27                    0.00     28.92     21.32      0.00
  29                    0.00     53.13     48.74      0.00
  30                    0.00     26.00     22.00      0.00
  31                    0.00     40.00     37.97      0.00
  32                    0.00     32.81     25.01      0.00
  33                    0.00     42.51     32.65      0.00
  34                    0.00     44.17     25.42      0.00
  35                    0.00     50.80     50.80      0.00
  36                    0.00     48.95     28.95      0.00
  37                    0.00     42.11     14.11      0.00
  38                    0.00     25.91     25.91      0.00
  39                    0.00      9.90      9.90      0.00
  20                    0.00     54.34     51.45      0.00
  40                    0.00     54.34     51.45      0.00
  42                    0.00     22.73     19.84      0.00
  43                    0.00     54.34     51.45      0.00
  44                    0.00     22.73     19.84      0.00
  45                    0.00     22.73     19.84      0.00
  46                    0.00     22.73     19.84      0.00
  47                    0.00     53.13     48.74      0.00
  49                    0.00     53.13     48.74      0.00
  50                    0.00     53.13     48.74      0.00
  53                    0.00     22.68     18.29      0.00


  Page 19                                                            方案三
  Node Results at 0:00 Hrs: (continued)
  ----------------------------------------------------------------------
  Node                Demand      Head  Pressure   Quality
  ID                     CMD         m         m          
  ----------------------------------------------------------------------
  54                    0.00     28.42     24.03      0.00
  55                    0.00     28.42     24.03      0.00
  56                    0.00     28.42     24.03      0.00
  57                    0.00     22.68     18.29      0.00
  58                    0.00     52.65     48.65      0.00
  59                    0.00     52.64     50.61      0.00
  60                    0.00     26.00     23.97      0.00
  61                    0.00     39.99     37.96      0.00
  66                    0.00     38.54     30.34      0.00
  67                    0.00     38.54     30.29      0.00
  68                 5400.00     38.54     22.94      0.00
  69                    0.00     53.37     37.77      0.00
  70                    0.00     53.37     37.77      0.00
  71                    0.00     53.09     35.42      0.00
  72                    0.00     44.49     25.74      0.00
  73                    0.00     44.17     25.42      0.00
  74                    0.00     38.55     30.35      0.00
  75                    0.00     38.54     30.34      0.00
  76                 4500.00     32.81     25.01      0.00
  77                    0.00     22.67     13.67      0.00
  78                    0.00     20.40     20.40      0.00
  79                    0.00     50.00     17.50      0.00
  80                    0.00     42.50     42.50      0.00
  81                    0.00     34.21     34.21      0.00
  82                    0.00     22.34     20.34      0.00
  28                    0.00     54.34     51.45      0.00
  51                    0.00     25.45     19.76      0.00
  83                    0.00     28.87     21.87      0.00
  84                    0.00     42.02     14.02      0.00
  1                     0.00     23.71     21.49      0.00
  3                     0.00     20.84     14.56      0.00
  18                    0.00     20.84     14.56      0.00
  19                 2130.00     21.49     14.69      0.00
  21                    0.00     20.84     14.56      0.00
  22                    0.00     22.81     16.81      0.00
  24                 2130.00     21.54     14.74      0.00
  25                    0.00     23.16     20.94      0.00
  65                    0.00     26.00     22.00      0.00
  85                    0.00     40.00     40.00      0.00
  86                    0.00     39.68     31.68      0.00
  88                    0.00     40.66     40.66      0.00
  89                    0.00     40.66     40.66      0.00
  90                    0.00     52.65     52.65      0.00
  91                    0.00     52.65     52.65      0.00
  87                    0.00     52.40     16.40      0.00
  92                    0.00     52.71     34.71      0.00
  93                    0.00     52.25     27.65      0.00


  Page 20                                                            方案三
  Node Results at 0:00 Hrs: (continued)
  ----------------------------------------------------------------------
  Node                Demand      Head  Pressure   Quality
  ID                     CMD         m         m          
  ----------------------------------------------------------------------
  94                    0.00     52.77     18.77      0.00
  95               -24768.35     30.86     15.86      0.00
  97                    0.00     55.42     42.92      0.00
  98                    0.00     55.28     42.78      0.00
  99                    0.00     54.76     32.67      0.00
  100                   0.00     54.37     26.61      0.00
  101                   0.00     53.48     11.29      0.00
  103                   0.00     53.32     10.09      0.00
  104                   0.00     53.15      8.60      0.00
  105                   0.00     52.93      9.41      0.00
  板新淨水場                 0.02     42.50      0.00      0.00 Reservoir
  中和平壓塔           -316401.10     23.26      0.00      0.00 Reservoir
  徐匯中學             -30419.29     10.00      0.00      0.00 Reservoir
  2               -471750.30     22.67      0.00      0.00 Reservoir
  光復加壓站           -471750.30      6.00      0.00      0.00 Reservoir
  埔墘加壓站           -242918.40      5.00      0.00      0.00 Reservoir
  清水加壓站            -73482.71     28.00      0.00      0.00 Reservoir
  浮洲加壓站           -282190.70     13.00      0.00      0.00 Reservoir
  新五路加壓站           -34918.41      2.00      0.00      0.00 Reservoir
  23               -24768.00     24.50      0.00      0.00 Reservoir
  五谷王北街                 0.00     25.08      0.00      0.00 Reservoir
  泰山配水池                 0.00     42.50      0.00      0.00 Reservoir
  Puchan                0.00      9.00      2.00      0.00 Tank
  Shizitou          24768.35     28.50      4.00      0.00 Tank
  KuanFu                0.00      9.80      3.80      0.00 Tank
  ShinWuTank            0.00      6.00      4.00      0.00 Tank
  Fuchow                0.00     29.20      4.00      0.00 Tank
  8                     0.00     33.00      5.00      0.00 Tank
  17                    0.00     40.50      8.00      0.00 Tank
  96                    0.00     46.77      0.00      0.00 Tank
  
  Link Results at 0:00 Hrs:
  ----------------------------------------------------------------------
  Link                  Flow  VelocityUnit Headloss    Status
  ID                     CMD       m/s      m/km
  ----------------------------------------------------------------------
  CHP125            15209.64      0.62      1.12      Open
  CHP126            15199.25      0.35      0.28      Open
  CHP128               28.97      0.00      0.00      Open
  CHP134            24768.00      1.01      2.76      Open
  CHP139             -232.23      0.01      0.00      Open
  CHP140           -13230.00      0.19      0.07      Open
  CHP142           -34918.00      0.51      0.43      Open
  CHP143           -10630.26      0.13      0.03      Open
  CHP144           -26810.39      0.33      0.17      Open
  CHP145            44015.36      0.80      1.11      Open
  CHP146            12069.32      0.36      0.34      Open


  Page 21                                                            方案三
  Link Results at 0:00 Hrs: (continued)
  ----------------------------------------------------------------------
  Link                  Flow  VelocityUnit Headloss    Status
  ID                     CMD       m/s      m/km
  ----------------------------------------------------------------------
  CHP147            16076.26      0.48      0.59      Open
  CHP149             4225.38      0.25      0.25      Open
  CHP150             4006.94      0.16      0.09      Open
  CHP152                0.00      0.00      0.00      Open
  CHP153             7454.56      0.06      0.01      Open
  CHP154             5594.02      0.33      0.43      Open
  CHP155            -6424.20      0.26      0.23      Open
  CHP157             -403.78      0.02      0.00      Open
  CHP158             4334.94      0.52      1.51      Open
  CHP159            -5385.06      0.50      1.18      Open
  CHP160             7269.32      0.22      0.13      Open
  CHP161             5313.71      0.31      0.39      Open
  CHP162            -1530.68      0.14      0.11      Open
  CHP163           -57778.93      0.59      0.45      Open
  CHP164             3380.13      0.31      0.50      Open
  CHP165            -8216.97      0.34      0.36      Open
  CHP166           -65684.77      0.67      0.57      Open
  CHP156            -6219.87      0.45      0.87      Open
  CHP167           -20216.97      0.83      1.90      Open
  CHP168             3414.69      0.31      0.50      Open
  CHP169            -5912.73      0.35      0.47      Open
  CHP170           -23964.72      0.29      0.13      Open
  CHP171           -32764.72      0.40      0.24      Open
  CHP172           -25750.31      0.59      0.73      Open
  CHP173           -88680.49      0.91      1.00      Open
  CHP174          -143580.40      1.47      2.44      Open
  CHP177           -44187.06      0.65      0.67      Open
  CHP178                0.00      0.00      0.00      Open
  CHP181            51657.07      0.53      0.36      Open
  CHP183             1092.19      0.13      0.12      Open
  CHP184           -34518.39      0.51      0.42      Open
  CHP185             1698.84      0.05      0.01      Open
  CHP191           -31814.42      0.39      0.23      Open
  CHP192            10214.41      0.12      0.03      Open
  CHP193           -12366.19      0.28      0.19      Open
  CHP194                0.00      0.00      0.00    Closed
  CHP195           -40363.78      0.49      0.36      Open
  CHP141           -43755.48      1.01      1.95      Open
  CHP197           -68375.13      1.24      2.51      Open
  CHP200          -126528.80      1.86      4.70      Open
  CHP201          -108752.70      1.98      5.93      Open
  CHP202           -20910.05      0.25      0.11      Open
  CHP203             5400.00      0.32      0.40      Open
  CHP204            81272.75      0.99      1.30      Open
  CHP207            85557.11      1.04      1.43      Open
  CHP208            46471.18      2.74     21.52      Open
  CHP196           -42325.31      0.52      0.39      Open


  Page 22                                                            方案三
  Link Results at 0:00 Hrs: (continued)
  ----------------------------------------------------------------------
  Link                  Flow  VelocityUnit Headloss    Status
  ID                     CMD       m/s      m/km
  ----------------------------------------------------------------------
  CHP205           -49259.04      0.60      0.51      Open
  CHP206           -37796.54      1.55      6.04      Open
  CHP209           -25426.04      1.50      7.04      Open
  CHP210            -7317.26      0.53      1.17      Open
  CHP211          -121400.30      0.98      1.01      Open
  CHP212           -45163.87      1.85      8.40      Open
  CHP213          -146044.00      0.70      0.40      Open
  CHP214            -5400.00      0.03      0.00      Open
  CHP215          -196300.80      1.59      2.46      Open
  CHP217          -200800.80      1.62      2.56      Open
  CHP219            95480.11      0.46      0.18      Open
  CHP220           -54397.45      0.26      0.06      Open
  CHP227           -13927.60      0.11      0.02      Open
  CHP229             -698.85      0.01      0.00      Open
  CHP230           -31840.17      1.30      4.40      Open
  CHP231           -18962.54      0.78      1.68      Open
  CHP233           -58362.70      2.39     13.50      Open
  CHP234            -2951.97      0.27      0.39      Open
  CHP235                0.00      0.00      0.00    Closed
  CHP236            -3359.28      0.14      0.07      Open
  CHP237            -8768.54      0.26      0.19      Open
  CHP238           -21053.54      0.63      0.96      Open
  CHP239           -35228.54      1.06      2.50      Open
  CHP240           -35270.98      0.29      0.10      Open
  CHP241           -35969.82      0.29      0.11      Open
  CHP224          -147837.10      1.20      1.45      Open
  CHP228          -147837.10      0.97      0.87      Open
  CHP242           246075.80      1.61      2.23      Open
  CHP243            15542.86      0.10      0.01      Open
  CHP244             4742.86      0.04      0.00      Open
  CHP245            19014.11      0.78      1.69      Open
  CHP246            95802.30      0.77      0.65      Open
  CHP248             8364.11      0.34      0.37      Open
  CHP249            51911.11      0.42      0.21      Open
  CHP250            29296.15      0.36      0.20      Open
  CHP247                0.00      0.00      0.00      Open
  CHP251             7068.70      0.42      0.66      Open
  CHP252             3191.02      0.19      0.15      Open
  CHP253            45617.26      0.56      0.45      Open
  CHP254            29997.26      0.44      0.33      Open
  CHP255            -3092.10      0.07      0.01      Open
  CHP257             1165.13      0.07      0.02      Open
  CHP258            -3191.02      0.19      0.15      Open
  CHP260            11227.02      0.17      0.05      Open
  CHP262             9781.50      0.14      0.04      Open
  CHP263             6515.69      0.10      0.02      Open
  CHP266             9505.42      0.29      0.22      Open


  Page 23                                                            方案三
  Link Results at 0:00 Hrs: (continued)
  ----------------------------------------------------------------------
  Link                  Flow  VelocityUnit Headloss    Status
  ID                     CMD       m/s      m/km
  ----------------------------------------------------------------------
  CHP268             9555.92      0.39      0.47      Open
  CHP269            -2514.08      0.10      0.04      Open
  CHP256           117603.40      1.43      2.58      Open
  CHP279           -23761.08      0.29      0.13      Open
  CHP280           -21612.30      0.50      0.53      Open
  CHP282            -2617.58      0.19      0.13      Open
  CHP283            -4766.36      0.35      0.53      Open
  CHP284            62588.66      0.64      0.53      Open
  CHP285            62726.38      0.51      0.30      Open
  CHP288           -19339.21      0.24      0.09      Open
  CHP289           -29585.09      0.24      0.07      Open
  CHP290           -27177.97      0.63      0.81      Open
  CHP291           -30594.93      0.25      0.08      Open
  CHP293           109793.40      0.89      0.84      Open
  CHP295            10400.00      0.15      0.05      Open
  CHP296             4000.00      0.12      0.04      Open
  CHP297                0.00      0.00      0.00    Closed
  CHP298            -4000.00      0.12      0.04      Open
  CHP221            54397.45      0.44      0.23      Open
  CHP223           -95480.11      0.46      0.18      Open
  CHP312            13166.19      0.30      0.21      Open
  CHP313           -13166.19      0.30      0.21      Open
  CHP314                0.00      0.00      0.00      Open
  CHP316                0.00      0.00      0.00      Open
  CHP322           117603.40      1.20      1.69      Open
  CHP326           316401.10      1.17      0.88      Open
  CHP328           242918.40      0.89      0.54      Open
  CHP329            54113.16      0.44      0.23      Open
  CHP330            50923.23      0.41      0.20      Open
  CHP310            24768.35      0.57      0.68      Open
  CHP311                0.00      0.00      0.00    Closed
  Puchan                0.00      0.00      0.00    Closed
  CHP323                0.00      0.00      0.00      Open
  CHP331                0.00      0.00      0.00    Closed
  CHP332           -24768.35      0.57      0.68      Open
  CHP333            24768.00      1.01      2.76      Open
  CHP343             -812.13      0.07      0.04      Open
  CHP344               28.97      0.00      0.00      Open
  CHP345             2452.07      0.23      0.27      Open
  CHP347             3116.73      0.29      0.43      Open
  CHP349              304.68      0.03      0.01      Open
  CHP350              547.73      0.03      0.01      Open
  CHP351               98.88      0.01      0.00      Open
  CHP352               98.88      0.01      0.00      Open
  CHP353            -7083.71      0.29      0.27      Open
  CHP354            -1716.29      0.21      0.27      Open
  CHP355            -4507.81      0.18      0.12      Open


  Page 24                                                            方案三
  Link Results at 0:00 Hrs: (continued)
  ----------------------------------------------------------------------
  Link                  Flow  VelocityUnit Headloss    Status
  ID                     CMD       m/s      m/km
  ----------------------------------------------------------------------
  CHP356              701.16      0.04      0.01      Open
  CHP359                0.00      0.00      0.00    Closed
  CHP360            54899.93      0.81      1.00      Open
  CHP361            40663.99      0.60      0.57      Open
  CHP362            35769.83      0.53      0.45      Open
  CHP363            -3292.45      0.30      0.47      Open
  CHP364             2409.57      0.29      0.51      Open
  CHP365             5343.30      0.31      0.39      Open
  CHP366            18164.67      2.19     21.47      Open
  CHP367             5978.74      0.55      1.43      Open
  CHP368            10263.10      0.60      1.31      Open
  CHP370            -2654.36      0.16      0.11      Open
  CHP371           -23176.10      1.37      5.93      Open
  CHP372           -23176.10      1.37      5.93      Open
  CHP373          -108752.70      1.98      5.93      Open
  CHP377            51911.11      0.53      0.37      Open
  CHP378             5949.15      0.24      0.20      Open
  CHP379            62588.66      0.92      1.28      Open
  CHP381             -556.06      0.05      0.01      Open
  CHP383           100175.40      1.22      1.92      Open
  CHP384           100625.40      1.23      1.93      Open
  CHP218            73432.13      0.59      0.40      Open
  CHP358              126.02      0.01      0.00      Open
  CHP385                0.00      0.00      0.00    Closed
  CHP388           -31814.42      0.39      0.23      Open
  CHP324            -8800.00      0.26      0.19      Open
  CHP325             6424.20      1.05      6.64      Open
  CHP327              403.78      0.02      0.00      Open
  CHP335             2992.17      0.12      0.06      Open
  CHP337            -2652.76      0.24      0.32      Open
  CHP338             4211.01      0.03      0.00      Open
[...]
  CHP415                0.00      0.00      0.00      Open
  CHP416              584.31      0.05      0.02      Open
  CHP417             1578.50      0.09      0.04      Open
  CHP418            -4392.98      0.13      0.05      Open
  CHP423           115959.80      1.19      1.65      Open
  CHP424             4956.35      0.06      0.01      Open
  CHP425             4956.35      0.07      0.01      Open


  Page 167                                                           方案三
  Link Results at 4:00 Hrs: (continued)
  ----------------------------------------------------------------------
  Link                  Flow  VelocityUnit Headloss    Status
  ID                     CMD       m/s      m/km
  ----------------------------------------------------------------------
  CHP427            10561.79      0.13      0.03      Open
  CHP428            10561.79      0.13      0.03      Open
  CHP429             5871.33      0.35      0.47      Open
  CHP431            -5605.44      0.08      0.01      Open
  CHP432            -5605.44      0.10      0.02      Open
  CHP433            -5605.44      0.13      0.04      Open
  CHP434            -5605.44      0.13      0.04      Open
  CHP435            -7846.15      0.32      0.33      Open
  CHP186                0.00      0.00      0.00    Closed
  CHP187           -34471.86      0.28      0.10      Open
  CHP259            23149.71      0.34      0.20      Open
  CHP265              330.38      0.00      0.00      Open
  CHP281            23149.71      0.42      0.34      Open
  CHP303            23149.71      0.24      0.08      Open
  CHP307            18179.71      0.42      0.38      Open
  CHP309            73482.70      0.75      0.54      Open
  CHP426            34980.28      1.05      2.47      Open
  CHP439             9965.85      0.08      0.01      Open
  CHP103                0.00      0.00      0.00      Open
  CHP225                0.00      0.00      0.00      Open
  CHP226            10824.15      0.09      0.01      Open
  CHP304            10824.15      0.09      0.01      Open
  CHP336            10824.15      0.09      0.01      Open
  CHP440             8934.15      0.07      0.01      Open
  CHP441             8934.15      1.46     12.22      Open
  CHP442            54837.96      0.26      0.07      Open
  CHP437            67134.45      0.82      0.91      Open
  CHP444             4637.93      0.43      0.89      Open
  CHP452           502323.10      1.53      1.26      Open
  CHP453           502323.10      1.53      1.18      Open
  CHP454           502323.10      1.53      1.01      Open
  CHP455           502323.10      1.53      1.03      Open
  CHP461                0.00      0.00      0.00    Closed
  CHP462           502323.10      1.53      1.77      Open
  CHP463            34918.00      0.51      0.43      Open
  CHP466                0.00      0.00      0.00    Closed
  CHP468            -5400.00      0.03      0.00      Open
  CHP469           147823.60      1.80      3.00      Open
  CHP471             6833.70      0.04      0.00      Open
  CHP474           -17525.85      0.14      0.03      Open
  CHP438          -108149.80      1.11      1.45      Open
  CHP315             9978.29      0.59      1.25      Open
  CHP318               -0.01      0.00      0.00      Open
  CHP348               -0.01      0.00      0.00      Open
  CHP436                0.00      0.00      0.00    Closed
  CHP470                0.00      0.00      0.00    Closed
  CHP475                0.00      0.00      0.00    Closed


  Page 168                                                           方案三
  Link Results at 4:00 Hrs: (continued)
  ----------------------------------------------------------------------
  Link                  Flow  VelocityUnit Headloss    Status
  ID                     CMD       m/s      m/km
  ----------------------------------------------------------------------
  CHP478           242918.40      0.89      0.54      Open
  CHP482            69993.18      1.03      1.57      Open
  CHP43                 0.00      0.00      0.00    Closed
  CHP458           -12705.44      0.38      0.38      Open
  CHP483            -5605.44      0.13      0.04      Open
  CHP487            -6408.49      0.15      0.04      Open
  CHP490           -16049.71      0.66      1.24      Open
  CHP491           -16049.71      0.66      1.24      Open
  CHP492             2702.44      0.25      0.33      Open
  CHP42             11324.71      0.46      0.65      Open
  CHP107            73482.70      0.75      0.54      Open
  CHP308            73482.70      0.75      0.54      Open
  CHP481             3794.45      0.06      0.01      Open
  CHP489             6279.20      0.58      1.57      Open
  63                    0.00      0.00      0.00    Closed
  83                 3780.00      0.62      2.48      Open
  117                   0.00      0.00      0.00    Closed
  118                   0.00      0.00      0.00    Closed
  1                     0.00      0.00      0.00      Open
  2                502323.10      1.53      1.11      Open
  7                282190.00      1.85      2.23      Open
  CHP446           471750.30      1.44      0.88      Open
  CHP447           471750.30      1.44      0.88      Open
  CHP448           471750.30      1.44      0.88      Open
  CHP449           471750.30      1.44      0.88      Open
  CHP450           471750.30      1.44      0.88      Open
  8                471750.30      1.44      0.88      Open
  9                  5235.60      0.21      0.16      Open
  13                20065.85      0.30      0.16      Open
  14                12650.73      0.52      0.80      Open
  15                73482.70      0.75      0.54      Open
  12               -29336.83      0.36      0.20      Open
  16               -38351.55      0.70      0.86      Open
  19                    0.00      0.00      0.00    Closed
  20                 5160.00      0.21      0.15      Open
  22                    0.00      0.00      0.00    Closed
  23                 8059.97      1.32     10.10      Open
  24                  550.87      0.03      0.01      Open
  25                 7509.11      0.06      0.01      Open
  26                  -76.55      0.00      0.00      Open
  27                -1043.48      0.01      0.00      Open
  28                25301.46      0.58      0.71      Open
  38                -7900.92      0.18      0.06      Open
  39               -16095.45      1.48      6.83      Open
  40               -37889.25      0.87      1.14      Open
  11                11703.12      0.48      0.69      Open
  42                    0.00      0.00      0.00    Closed


  Page 169                                                           方案三
  Link Results at 4:00 Hrs: (continued)
  ----------------------------------------------------------------------
  Link                  Flow  VelocityUnit Headloss    Status
  ID                     CMD       m/s      m/km
  ----------------------------------------------------------------------
  43                71735.24      0.73      0.52      Open
  46                    0.00      0.00      0.00    Closed
  47                14875.45      0.61      1.07      Open
  18                 3847.16      0.46      1.01      Open
  54                 1059.98      0.13      0.09      Open
  55               -49027.54      0.60      0.51      Open
  56                 3744.61      0.09      0.02      Open
  57                 8652.87      0.11      0.02      Open
  58                46144.99      0.68      0.73      Open
  62                68975.50      0.45      0.21      Open
  65               -55802.14      0.82      1.03      Open
  66                -4293.97      0.18      0.11      Open
  67              -116896.40      1.72      4.06      Open
  68              -121396.40      1.79      4.35      Open
  69               -25999.29      0.32      0.16      Open
  70              -237635.10      1.92      3.50      Open
  71               114663.40      0.93      0.91      Open
  72               -14353.03      0.12      0.02      Open
  73                73482.70      0.75      0.71      Open
  77                73482.70      0.75      0.71      Open
  78                74734.27      0.76      0.73      Open
  80                64471.82      0.66      0.55      Open
  81                    0.00      0.00      0.00    Closed
  82                    0.00      0.00      0.00    Closed
  84                    0.00      0.00      0.00    Closed
  89                30773.02      0.45      0.34      Open
  90                    0.00      0.00      0.00    Closed
  91                 5582.56      0.33      0.42      Open
  92                25301.46      0.37      0.24      Open
  32                    0.01      0.00      0.00      Open
  93               108149.80      0.87      0.62      Open
  94               502323.10      1.53      0.99      Open
  96                    0.00      0.00      0.00      Open
  97                    0.00      0.00      0.00      Open
  98               108149.80      0.87      0.62      Open
  99               108149.80      0.87      0.62      Open
  111                   0.00      0.00      0.00      Open
  114                   0.00      0.00      0.00      Open
  115                   0.00      0.00      0.00      Open
  119                   0.00      0.00      0.00      Open
  122                   0.00      0.00      0.00      Open
  124                   0.00      0.00      0.00      Open
  134              147823.60      0.71      0.41      Open
  138               68975.50      0.71      0.01      Open
  139              220048.20      1.44      1.82      Open
  146                   0.00      0.00      0.00      Open
  148              502323.10      1.53      1.30      Open


  Page 170                                                           方案三
  Link Results at 4:00 Hrs: (continued)
  ----------------------------------------------------------------------
  Link                  Flow  VelocityUnit Headloss    Status
  ID                     CMD       m/s      m/km
  ----------------------------------------------------------------------
  123                   0.00      0.00      0.00    Closed
  125               -4453.30      0.04      0.00      Open
  149                   0.00      0.00      0.00    Closed
  49               108621.50      1.60      3.54      Open
  50               108621.50      1.60      3.54      Open
  150                2947.93      0.17      0.13      Open
  152               -8127.27      0.48      0.85      Open
  153              -25336.83      0.31      0.15      Open
  155              -10257.27      0.42      0.54      Open
  156              -12387.27      0.51      0.77      Open
  157              -12387.27      0.37      0.36      Open
  127              121792.20      0.37      0.09      Open
  160               52819.38      0.16      0.02      Open
  59               160494.10      6.57     87.90      Open
  164             -380542.30      2.49      3.82      Open
  166              380542.30      2.49      3.82      Open
  168              380542.30      2.49      3.82      Open
  163                3087.39      0.02      0.00      Open
  169               -7736.77      0.32      0.29      Open
  170               10824.16      0.09      0.01      Open
  171              -96639.23      0.47      0.19      Open
  174               24768.35      1.01      0.00      Open
  175                   0.00      0.00      0.00    Closed
  176              137735.70      0.90      0.58      Open
  177              137735.70      0.90      0.58      Open
  178              137735.70      0.63      0.24      Open
  179              137735.70      0.63      0.24      Open
  180              137735.70      0.63      0.24      Open
  181              137735.70      0.63      0.24      Open
  182              137735.70      0.63      0.24      Open
  183              137735.70      0.63      0.24      Open
  184              137735.70      0.42      0.09      Open
  189                   0.00      0.00      0.00    Closed
  Puchan01              0.00      0.00      0.00    Closed Pump
  Puchan02          97005.92      0.00    -23.47      Open Pump
  Puchan03          74692.71      0.00    -23.47      Open Pump
  Puchan05              0.00      0.00      0.00    Closed Pump
  Puchan04              0.00      0.00      0.00    Closed Pump
  Puchan06          74683.60      0.00    -23.47      Open Pump
  ChanSin1              0.00      0.00      0.00    Closed Pump
  ChanSin4              0.00      0.00      0.00    Closed Pump
  ChanSin2              0.00      0.00      0.00    Closed Pump
  85                 8256.00      0.00    -31.60      Open Pump
  86                 8256.00      0.00    -31.60      Open Pump
  87                    0.00      0.00      0.00    Closed Pump
  88                 8256.00      0.00    -31.60      Open Pump
  100                   0.00      0.00      0.00    Closed Pump


  Page 171                                                           方案三
  Link Results at 4:00 Hrs: (continued)
  ----------------------------------------------------------------------
  Link                  Flow  VelocityUnit Headloss    Status
  ID                     CMD       m/s      m/km
  ----------------------------------------------------------------------
  60                    0.00      0.00      0.00    Closed Pump
  孝義02                  0.00      0.00      0.00    Closed Pump
  孝義03                  0.00      0.00      0.00    Closed Pump
  101                   0.00      0.00      0.00    Closed Pump
  102                   0.00      0.00      0.00    Closed Pump
  103                   0.00      0.00      0.00    Closed Pump
  104                   0.00      0.00      0.00    Closed Pump
  105                   0.00      0.00      0.00    Closed Pump
  106                   0.00      0.00      0.00    Closed Pump
  107                   0.00      0.00      0.00    Closed Pump
  108                   0.00      0.00      0.00    Closed Pump
  109                   0.00      0.00      0.00    Closed Pump
  110                   0.00      0.00      0.00    Closed Pump
  ChanSin3              0.02      0.00    -48.40      Open Pump
  120                3780.00      0.00    -34.58      Open Pump
  121                   0.00      0.00      0.00    Closed Pump
  KuanFu7               0.00      0.00      0.00    Closed Pump
  KuanFu6               0.00      0.00      0.00    Closed Pump
  KuanFu4          100464.60      0.00    -50.30      Open Pump
  KuanFu3          100464.60      0.00    -50.30      Open Pump
  KuanFu2          100464.60      0.00    -50.30      Open Pump
  KuanFu5          100464.60      0.00    -50.30      Open Pump
  KuanFu1          100464.60      0.00    -50.30      Open Pump
  SinWu01               0.00      0.00      0.00    Closed Pump
  SinWu02           30773.03      0.00    -26.52      Open Pump
  SinWu03               0.00      0.00      0.00    Closed Pump
  SinWu04               0.00      0.00      0.00    Closed Pump
  Fuchow4           71389.82      0.00    -41.93      Open Pump
  Fuchow3               0.00      0.00      0.00    Closed Pump
  Fuchow2           71389.82      0.00    -41.93      Open Pump
  Fuchow5           71389.82      0.00    -41.93      Open Pump
  Fuchow1               0.00      0.00      0.00    Closed Pump
  Fuchow6           71389.82      0.00    -41.93      Open Pump
  Tuchen1-1         22673.89      0.00    -31.53      Open Pump
  Tuchen1-2         22673.89      0.00    -31.53      Open Pump
  Tuchen1-3         28134.92      0.00    -31.53      Open Pump
  64                18683.57      0.00    -14.09      Open Pump
  74                    0.00      0.00      0.00    Closed Pump
  75                18683.57      0.00    -14.09      Open Pump
  76                    0.00      0.00      0.00    Closed Pump
  79                18683.57      0.00    -14.09      Open Pump
  3                     0.00      0.00      0.00    Closed Pump
  4                     0.00      0.00      0.00    Closed Pump
  5                     0.00      0.00      0.00    Closed Pump
  6                     0.00      0.00      0.00    Closed Pump
  17                    0.00      0.00      0.00    Closed Pump
  36                    0.00      0.00      0.00    Closed Pump


  Page 172                                                           方案三
  Link Results at 4:00 Hrs: (continued)
  ----------------------------------------------------------------------
  Link                  Flow  VelocityUnit Headloss    Status
  ID                     CMD       m/s      m/km
  ----------------------------------------------------------------------
  37                    0.00      0.00      0.00    Closed Pump
  51                    0.00      0.00      0.00    Closed Pump
  52                18683.57      0.00    -14.09      Open Pump
  21                    0.00      0.00      0.00    Closed Pump
  35                    0.00      0.00      0.00    Closed Pump
  41                    0.00      0.00    -48.00      Open Pump
  44                    0.00      0.00    -48.00      Open Pump
  143              502323.10      1.53      0.00      Open Valve
  61                73482.70      0.75      0.00      Open Valve
  30                    0.00      0.00      0.00      Open Valve
  31                    0.00      0.00      0.00      Open Valve
  33                25301.46      0.58      0.00      Open Valve
  10              -220048.20      1.44      0.00      Open Valve
  34                    0.00      0.00      0.00    Closed Valve
  29                    0.00      0.00      0.00    Closed Valve
  45                    0.00      0.00      0.00    Closed Valve
  53               108149.80      0.87      0.00      Open Valve
  95              -108149.80      0.87      0.00      Open Valve
  112                   0.00      0.00      0.00    Closed Valve
  113                   0.00      0.00      0.00    Closed Valve
  116                   0.00      0.00      0.00    Closed Valve
  126             -121780.70      0.37      0.00      Open Valve
  128               55802.14      0.82      0.00      Open Valve
  129              -68975.50      0.71      0.00      Open Valve
  130               68975.50      0.71      0.00      Open Valve
  131             -282190.00      1.85      0.00      Open Valve
  132                   0.00      0.00      0.00    Closed Valve
  133              147823.60      0.71      0.00      Open Valve
  135               96639.23      0.47      0.00      Open Valve
  136               45784.39      0.22      0.00      Open Valve
  137              237635.10      1.92      0.00      Open Valve
  140             -116896.40      1.72      0.00      Open Valve
  141              471750.30      1.44      0.00      Open Valve
  142              471750.30      1.44      0.00      Open Valve
  144               30593.95      0.37      0.00      Open Valve
  145                   0.00      0.00      0.00    Closed Valve
  147               30773.02      0.45      0.00      Open Valve
  48                74734.27      0.76      0.00      Open Valve
  151                2870.15      0.17      0.00      Open Valve
  154                5257.12      0.31      0.00      Open Valve
  158              -12387.27      0.37      0.00      Open Valve
  159               -7840.69      0.04      0.00      Open Valve
  161               52816.70      0.16     14.00    Active Valve
  162              121780.70      0.37      9.51    Active Valve
  165              380542.30      2.49      0.00      Open Valve
  167              380542.30      2.49      0.00      Open Valve
  173              151800.20      1.23      0.00      Open Valve


  Page 173                                                           方案三
  
