  Page 1                                          2025/10/30 下午 06:54:14
  **********************************************************************
  *                             E P A N E T                            *
  *                     Hydraulic and Water Quality                    *
  *                     Analysis for Pipe Networks                     *
  *                           Version 2.2                              *
  **********************************************************************
  
  Input File: 水力分析113.7.16.inp
  
  
  
  Link - Node Table:
  ----------------------------------------------------------------------
  Link           Start          End                Length  Diameter
  ID             Node           Node                    m        mm
  ----------------------------------------------------------------------
  1              3              1                     519       150
  2              1              2                     402       150
  3              1              4                     300       100
  4              5              3                    0.01       150
  
  Node Results at 0:00 Hrs:
  ----------------------------------------------------------------------
  Node                Demand      Head  Pressure   Quality
  ID                     CMD         m         m          
  ----------------------------------------------------------------------
  1                     8.00     96.99     36.19      0.00
  2                    16.00     96.98     13.98      0.00
  3                   192.00     96.99     30.29      0.00
  4                     6.40     96.98     31.48      0.00
  5                  -222.40     96.99      0.29      0.00 Reservoir
  
  Link Results at 0:00 Hrs:
  ----------------------------------------------------------------------
  Link                  Flow  VelocityUnit Headloss    Status
  ID                     CMD       m/s      m/km
  ----------------------------------------------------------------------
  1                    30.40      0.02      0.01      Open
  2                    16.00      0.01      0.00      Open
  3                     6.40      0.01      0.00      Open
  4                   222.40      0.15      0.00      Open
  
  Node Results at 1:00 Hrs:
  ----------------------------------------------------------------------
  Node                Demand      Head  Pressure   Quality
  ID                     CMD         m         m          
  ----------------------------------------------------------------------
  1                    10.00     96.79     35.99      0.00
  2                    20.00     96.79     13.79      0.00
  3                   240.00     96.80     30.10      0.00
  4                     8.00     96.79     31.29      0.00
  5                  -278.00     96.80      0.10      0.00 Reservoir
  


  Page 2                                                                
  Link Results at 1:00 Hrs:
  ----------------------------------------------------------------------
  Link                  Flow  VelocityUnit Headloss    Status
  ID                     CMD       m/s      m/km
  ----------------------------------------------------------------------
  1                    38.00      0.02      0.01      Open
  2                    20.00      0.01      0.00      Open
  3                     8.00      0.01      0.00      Open
  4                   278.00      0.18      0.00      Open
  
  Node Results at 2:00 Hrs:
  ----------------------------------------------------------------------
  Node                Demand      Head  Pressure   Quality
  ID                     CMD         m         m          
  ----------------------------------------------------------------------
  1                    12.00     96.69     35.89      0.00
  2                    24.00     96.69     13.69      0.00
  3                   288.00     96.70     30.00      0.00
  4                     9.60     96.69     31.19      0.00
  5                  -333.60     96.70      0.00      0.00 Reservoir
  
  Link Results at 2:00 Hrs:
  ----------------------------------------------------------------------
  Link                  Flow  VelocityUnit Headloss    Status
  ID                     CMD       m/s      m/km
  ----------------------------------------------------------------------
  1                    45.60      0.03      0.02      Open
  2                    24.00      0.02      0.01      Open
  3                     9.60      0.01      0.01      Open
  4                   333.60      0.22      0.93      Open
  
  Node Results at 3:00 Hrs:
  ----------------------------------------------------------------------
  Node                Demand      Head  Pressure   Quality
  ID                     CMD         m         m          
  ----------------------------------------------------------------------
  1                     8.00     96.99     36.19      0.00
  2                    16.00     96.98     13.98      0.00
  3                   192.00     96.99     30.29      0.00
  4                     6.40     96.98     31.48      0.00
  5                  -222.40     96.99      0.29      0.00 Reservoir
  


  Page 3                                                                
  Link Results at 3:00 Hrs:
  ----------------------------------------------------------------------
  Link                  Flow  VelocityUnit Headloss    Status
  ID                     CMD       m/s      m/km
  ----------------------------------------------------------------------
  1                    30.40      0.02      0.01      Open
  2                    16.00      0.01      0.00      Open
  3                     6.40      0.01      0.00      Open
  4                   222.40      0.15      0.00      Open
  
