  Page 1                                           2025/8/28 上午 11:52:43
  **********************************************************************
  *                             E P A N E T                            *
  *                     Hydraulic and Water Quality                    *
  *                     Analysis for Pipe Networks                     *
  *                           Version 2.2                              *
  **********************************************************************
  
  Input File: 測試延管工程-no-pattern.inp
  
  
  
  Link - Node Table:
  ----------------------------------------------------------------------
  Link           Start          End                Length  Diameter
  ID             Node           Node                    m        mm
  ----------------------------------------------------------------------
  2              1              2                     268       100
  3              2              3                     314        10
  4              3              5                     513       100
  5              2              4                     357       100
  7              3              8                     234       100
  1              6              1                    #N/A      #N/A Pump
  6              3              7                    #N/A       100 Valve
  
  Energy Usage:
  ----------------------------------------------------------------------
                    Usage   Avg.     Kw-hr      Avg.      Peak      Cost
  Pump             Factor Effic.     /m3        Kw        Kw      /day
  ----------------------------------------------------------------------
  1                100.00  75.00      0.27      0.37      0.37      0.00
  ----------------------------------------------------------------------
                                                Demand Charge:      0.00
                                                Total Cost:         0.00
  
  Node Results:
  ----------------------------------------------------------------------
  Node                Demand      Head  Pressure   Quality
  ID                     CMD         m         m          
  ----------------------------------------------------------------------
  1                     0.00    104.05     74.05      0.00
  2                    10.00    104.03     44.03      0.00
  3                    10.00     89.97     59.97      0.00
  4                    20.00    104.02     44.02      0.00
  7                     0.00     14.00      4.00      0.00
  8                    20.00     89.97     89.97      0.00
  6                   -32.72     30.00      0.00      0.00 Reservoir
  5                   -27.28     90.00     10.00      0.00 Tank
  


  Page 2                                                                
  Link Results:
  ----------------------------------------------------------------------
  Link                  Flow  VelocityUnit Headloss    Status
  ID                     CMD       m/s      m/km
  ----------------------------------------------------------------------
  2                    32.72      0.05      0.07      Open
  3                     2.72      0.40     44.78      Open
  4                   -27.28      0.04      0.05      Open
  5                    20.00      0.03      0.03      Open
  7                    20.00      0.03      0.03      Open
  1                    32.72      0.00    -74.05      Open Pump
  6                     0.00      0.00     75.97    Active Valve
  
