  Page 1                                            2025/9/3 下午 01:38:14
  **********************************************************************
  *                             E P A N E T                            *
  *                     Hydraulic and Water Quality                    *
  *                     Analysis for Pipe Networks                     *
  *                           Version 2.2                              *
  **********************************************************************
  
  Input File: 測試延管工程-no-pattern.inp
  
  
  
  Link - Node Table:
  ----------------------------------------------------------------------
  Link           Start          End                Length  Diameter
  ID             Node           Node                    m        mm
  ----------------------------------------------------------------------
  2              50             49                     67       200
  3              60             50                    110       200
  4              56             60                    142       200
  5              52             50                    136       100
  6              52             51                     66       200
  7              56             52                     93       200
  8              57             56                     41       200
  9              58             57                     18       200
  10             59             58                     27       200
  11             61             63                     67       100
  12             63             58                    146       100
  13             61             59                    145       200
  15             55             57                    142       100
  16             55             53                    104       100
  17             53             52                    134       100
  18             53             54                     69       100
  19             54             51                    134       300
  20             46             54                     18       300
  21             62             61                     19       200
  22             39             47                    100       100
  23             47             46                     68       100
  24             43             47                    125       100
  25             40             39                    121       100
  26             40             43                     60       100
  27             43             45                     70       100
  28             45             46                    129       300
  30             41             40                    102       100
  31             41             42                     46       200
  32             42             43                    102       100
  33             42             44                     69       200
  34             44             45                    107       300
  35             38             44                     13       300
  36             36             37                     52       200
  37             37             38                     64       200
  38             33             36                    143       100
  39             33             34                     60       100
  40             34             37                    143       100


  Page 2                                                                
  Link - Node Table: (continued)
  ----------------------------------------------------------------------
  Link           Start          End                Length  Diameter
  ID             Node           Node                    m        mm
  ----------------------------------------------------------------------
  41             34             35                     68       100
  42             35             38                    144       300
  43             17             36                     17       200
  44             68             41                     17       200
  45             32             33                     33       100
  46             30             32                    139       100
  47             31             30                     50       100
  48             31             32                    159       100
  49             30             29                     65       100
  50             29             28                     66       100
  51             28             35                    177       300
  52             29             34                    175       100
  53             26             31                    113       100
  54             26             27                    204       300
  55             69             27                      5       300
  56             69             28                    106       300
  57             26             25                     19       300
  58             25             24                     58       300
  59             24             23                     13       300
  60             23             22                    117       300
  61             24             21                    194       200
  62             25             20                    209       100
  64             20             19                     82       100
  65             19             17                    145       100
  66             19             18                    131       100
  67             20             21                    108       100
  68             21             18                     77       200
  69             18             16                    142       200
  70             17             16                    142       200
  71             16             9                      13       200
  73             23             15                    120       200
  74             15             11                    150       200
  75             11             9                     145       200
  76             15             13                     70       100
  77             13             12                    148        10
  78             11             12                     75       100
  79             9              8                     145       200
  80             13             14                     52       100
  81             22             14                    115       100
  82             14             10                    147       100
  83             10             8                     142       200
  84             8              4                      34       200
  85             4              3                      68       200
  87             7              5                      25       100
  88             5              6                      68       100
  89             1              6                     255       300
  90             6              3                     142       300


  Page 3                                                                
  Link - Node Table: (continued)
  ----------------------------------------------------------------------
  Link           Start          End                Length  Diameter
  ID             Node           Node                    m        mm
  ----------------------------------------------------------------------
  91             5              4                     139       100
  92             22             2                      21       300
  93             2              1                     105       300
  94             2              70                     82       100
  95             70             7                     180       100
  86             67             65                     96       200
  96             65             62                    110        10
  97             62             64                     75       100
  98             64             66                    125       100
  99             66             65                    125       100
  100            66             68                     98       100
  101            68             67                    142       200
  102            67             71                     11       200
  103            81             82                     69       200
  104            82             79                    184       100
  105            79             80                     71       100
  106            80             81                    176       300
  107            81             3                      12       300
  108            87             85                     62       200
  109            85             84                    155       100
  110            84             83                     70       100
  111            86             88                     74       200
  112            88             89                    150       100
  113            89             90                     70       100
  114            86             90                    156       100
  115            88             91                     75       200
  116            91             92                    145       200
  117            92             89                     78       100
  118            92             75                     19       200
  119            75             76                     77       100
  120            86             85                     19       200
  121            76             77                     72       100
  122            77             78                    189       100
  123            78             82                     31       200
  124            78             72                     78       200
  125            76             73                    103       100
  126            73             72                     92       100
  127            73             74                     73       100
  128            75             74                    109       200
  129            74             71                     96       200
  130            71             72                     69       200
  131            51             49                    136       300
  132            59             91                     12       200
  133            12             10                     57       100
  134            95             94                 0.0001       400
  135            94             93                      1       300
  136            93             69                     16       200


  Page 4                                                                
  
  Node Results:
  ----------------------------------------------------------------------
  Node                Demand      Head  Pressure   Quality
  ID                     CMD         m         m          
  ----------------------------------------------------------------------
  1                    73.00     74.56     30.56      0.00
  2                    43.00     74.57     30.57      0.00
  3                    52.00     74.53     33.53      0.00
  4                     6.00     74.53     33.53      0.00
  5                     4.00     74.53     31.53      0.00
  6                   153.00     74.54     32.54      0.00
  7                    63.00     74.53     31.53      0.00
  8                   110.00     74.53     32.53      0.00
  9                   161.00     74.54     32.54      0.00
  10                  136.00     74.53     31.53      0.00
  11                    3.00     74.55     31.55      0.00
  12                    0.00     74.54     31.54      0.00
  13                    6.00     74.56     29.56      0.00
  14                   42.00     74.55     30.55      0.00
  15                   57.00     74.57     30.57      0.00
  16                   29.00     74.55     32.55      0.00
  17                   66.00     74.55     32.55      0.00
  18                   94.00     74.55     31.55      0.00
  19                   43.00     74.55     32.55      0.00
  20                    3.00     74.57     31.57      0.00
  21                   10.00     74.56     31.56      0.00
  22                   18.00     74.57     30.57      0.00
  23                   20.00     74.59     30.59      0.00
  24                   85.00     74.59     30.59      0.00
  25                   46.00     74.62     30.62      0.00
  26                   52.00     74.63     30.63      0.00
  27                    3.00     74.75     31.75      0.00
  28                   85.00     74.69     31.69      0.00
  29                   45.00     74.61     31.61      0.00
  30                   15.00     74.60     31.60      0.00
  31                   44.00     74.60     30.60      0.00
  32                    0.00     74.59     31.59      0.00
  33                   15.00     74.58     32.58      0.00
  34                   47.00     74.58     31.58      0.00
  35                    7.00     74.61     32.61      0.00
  36                   12.00     74.55     32.55      0.00
  37                   15.00     74.55     32.55      0.00
  38                   42.00     74.55     33.55      0.00
  39                   89.00     74.49     34.49      0.00
  40                    7.00     74.50     33.50      0.00
  41                    0.00     74.51     32.51      0.00
  42                   39.00     74.52     33.52      0.00
  43                   57.00     74.51     34.51      0.00
  44                    9.00     74.54     33.54      0.00
  45                   58.00     74.52     34.52      0.00
  46                   30.00     74.50     34.50      0.00


  Page 5                                                                
  Node Results: (continued)
  ----------------------------------------------------------------------
  Node                Demand      Head  Pressure   Quality
  ID                     CMD         m         m          
  ----------------------------------------------------------------------
  47                   20.00     74.50     34.50      0.00
  49                   30.00     74.48     35.48      0.00
  50                  246.00     74.47     36.47      0.00
  51                   20.00     74.48     34.48      0.00
  52                  271.00     74.47     34.47      0.00
  53                   25.00     74.47     34.47      0.00
  54                    7.00     74.50     34.50      0.00
  55                  165.00     74.42     34.42      0.00
  56                   40.00     74.47     35.47      0.00
  57                   20.00     74.47     35.47      0.00
  58                    1.00     74.47     35.47      0.00
  59                    0.00     74.47     35.47      0.00
  60                   66.00     74.47     35.47      0.00
  61                    0.00     74.47     34.47      0.00
  62                   28.00     74.47     34.47      0.00
  63                    0.00     74.47     34.47      0.00
  64                    0.00     74.47     34.47      0.00
  65                   15.00     74.50     33.50      0.00
  66                   92.00     74.48     33.48      0.00
  67                   10.00     74.50     32.50      0.00
  68                   80.00     74.51     32.51      0.00
  69                    0.00     74.75     31.75      0.00
  70                   64.00     74.53     30.53      0.00
  71                   55.00     74.50     32.50      0.00
  72                    4.00     74.50     32.50      0.00
  73                   15.00     74.49     33.49      0.00
  74                    6.00     74.49     33.49      0.00
  75                   34.00     74.48     34.48      0.00
  76                    9.00     74.48     34.48      0.00
  77                   59.00     74.48     34.48      0.00
  78                   94.00     74.51     32.51      0.00
  79                   10.00     74.52     34.52      0.00
  80                   26.00     74.53     34.53      0.00
  81                    9.00     74.53     33.53      0.00
  82                   11.00     74.52     33.52      0.00
  83                    0.00     74.47     34.47      0.00
  84                   12.00     74.47     34.47      0.00
  85                    6.00     74.47     35.47      0.00
  86                    0.00     74.47     35.47      0.00
  87                    0.00     74.47     35.47      0.00
  88                   39.00     74.47     35.47      0.00
  89                   51.00     74.47     34.47      0.00
  90                   11.00     74.47     34.47      0.00
  91                   14.00     74.47     35.47      0.00
  92                   10.00     74.48     34.48      0.00
  93                    0.00     75.00     32.00      0.00
  94                    0.00     75.00     32.00      0.00


  Page 6                                                                
  Node Results: (continued)
  ----------------------------------------------------------------------
  Node                Demand      Head  Pressure   Quality
  ID                     CMD         m         m          
  ----------------------------------------------------------------------
  95                -3669.00     75.00      0.00      0.00 Reservoir
  
  Link Results:
  ----------------------------------------------------------------------
  Link                  Flow  VelocityUnit Headloss    Status
  ID                     CMD       m/s      m/km
  ----------------------------------------------------------------------
  2                  -310.42      0.11      0.16      Open
  3                   -65.32      0.02      0.01      Open
  4                     0.68      0.00      0.00      Open
  5                     0.90      0.00      0.00      Open
  6                  -365.56      0.13      0.22      Open
  7                   -71.79      0.03      0.01      Open
  8                   -31.11      0.01      0.00      Open
  9                    66.07      0.02      0.01      Open
  10                   63.79      0.02      0.01      Open
  11                    3.28      0.00      0.00      Open
  12                    3.28      0.00      0.00      Open
  13                   -6.08      0.00      0.00      Open
  15                  -77.18      0.11      0.35      Open
  16                  -87.82      0.13      0.45      Open
  17                  -21.87      0.03      0.03      Open
  18                  -90.95      0.13      0.48      Open
  19                  725.98      0.12      0.11      Open
  20                  823.93      0.13      0.13      Open
  21                   -2.80      0.00      0.00      Open
  22                  -41.81      0.06      0.11      Open
  23                  -31.25      0.05      0.07      Open
  24                   30.56      0.05      0.06      Open
  25                   47.19      0.07      0.14      Open
  26                  -22.19      0.03      0.04      Open
  27                  -61.77      0.09      0.23      Open
  28                  885.18      0.14      0.15      Open
  30                   32.00      0.05      0.07      Open
  31                 -367.48      0.14      0.22      Open
  32                   47.98      0.07      0.15      Open
  33                 -454.46      0.17      0.32      Open
  34                 1004.95      0.16      0.19      Open
  35                 1468.41      0.24      0.39      Open
  36                  -53.31      0.02      0.01      Open
  37                   -4.66      0.00      0.00      Open
  38                   62.70      0.09      0.24      Open
  39                  -17.04      0.03      0.02      Open
  40                   63.65      0.09      0.25      Open
  41                  -77.97      0.11      0.36      Open
  42                 1515.07      0.25      0.42      Open
  43                 -104.01      0.04      0.02      Open


  Page 7                                                                
  Link Results: (continued)
  ----------------------------------------------------------------------
  Link                  Flow  VelocityUnit Headloss    Status
  ID                     CMD       m/s      m/km
  ----------------------------------------------------------------------
  44                 -335.48      0.12      0.18      Open
  45                   60.66      0.09      0.23      Open
  46                   31.63      0.05      0.07      Open
  47                   -7.26      0.01      0.00      Open
  48                   29.04      0.04      0.06      Open
  49                  -53.88      0.08      0.18      Open
  50                 -148.61      0.22      1.19      Open
  51                 1600.04      0.26      0.46      Open
  52                   49.72      0.07      0.16      Open
  53                   65.78      0.10      0.26      Open
  54                -1832.36      0.30      0.59      Open
  55                 1835.36      0.30      0.59      Open
  56                 1833.64      0.30      0.59      Open
  57                 1714.58      0.28      0.52      Open
  58                 1604.32      0.26      0.46      Open
  59                 1232.22      0.20      0.28      Open
  60                  882.24      0.14      0.15      Open
  61                  287.11      0.11      0.14      Open
  62                   64.25      0.09      0.25      Open
  64                   51.08      0.08      0.16      Open
  65                   22.18      0.03      0.04      Open
  66                  -14.10      0.02      0.02      Open
  67                   10.18      0.01      0.01      Open
  68                  287.29      0.11      0.14      Open
  69                  179.18      0.07      0.06      Open
  70                   60.19      0.02      0.01      Open
  71                  210.37      0.08      0.08      Open
  73                  329.98      0.12      0.18      Open
  74                  227.94      0.08      0.09      Open
  75                  174.75      0.06      0.05      Open
  76                   45.04      0.07      0.13      Open
  77                    0.10      0.01      0.11      Open
  78                   50.19      0.07      0.16      Open
  79                  224.12      0.08      0.09      Open
  80                   38.94      0.06      0.10      Open
  81                   49.42      0.07      0.15      Open
  82                   46.37      0.07      0.14      Open
  83                  -39.35      0.01      0.00      Open
  84                   74.77      0.03      0.01      Open
  85                   58.93      0.02      0.01      Open
  87                  -42.92      0.06      0.12      Open
  88                  -37.08      0.05      0.09      Open
  89                  614.74      0.10      0.08      Open
  90                  424.66      0.07      0.04      Open
  91                   -9.84      0.01      0.01      Open
  92                  814.82      0.13      0.13      Open
  93                  687.74      0.11      0.10      Open


  Page 8                                                                
  Link Results: (continued)
  ----------------------------------------------------------------------
  Link                  Flow  VelocityUnit Headloss    Status
  ID                     CMD       m/s      m/km
  ----------------------------------------------------------------------
  94                   84.08      0.12      0.41      Open
  95                   20.08      0.03      0.03      Open
  86                   63.32      0.02      0.01      Open
  96                    0.15      0.02      0.25      Open
  97                  -25.05      0.04      0.04      Open
  98                  -25.05      0.04      0.04      Open
  99                  -48.17      0.07      0.15      Open
  100                 -68.88      0.10      0.29      Open
  101                 186.60      0.07      0.06      Open
  102                 113.28      0.04      0.02      Open
  103                 361.03      0.13      0.21      Open
  104                 -25.56      0.04      0.05      Open
  105                 -35.56      0.05      0.08      Open
  106                 -61.56      0.01      0.00      Open
  107                -431.59      0.07      0.04      Open
  108                   0.00      0.00      0.00      Open
  109                  12.00      0.02      0.01      Open
  110                   0.00      0.00      0.00      Open
  111                 -27.57      0.01      0.00      Open
  112                  10.30      0.02      0.01      Open
  113                   1.43      0.00      0.00      Open
  114                   9.57      0.01      0.01      Open
  115                 -76.87      0.03      0.01      Open
  116                -160.73      0.06      0.05      Open
  117                  42.13      0.06      0.12      Open
  118                -212.87      0.08      0.08      Open
  119                 -16.55      0.02      0.02      Open
  120                  18.00      0.01      0.00      Open
  121                   9.35      0.01      0.01      Open
  122                 -49.65      0.07      0.16      Open
  123                -375.59      0.14      0.23      Open
  124                 231.94      0.09      0.09      Open
  125                 -34.90      0.05      0.08      Open
  126                 -47.82      0.07      0.15      Open
  127                  -2.08      0.00      0.00      Open
  128                -230.32      0.08      0.09      Open
  129                -238.40      0.09      0.10      Open
  130                -180.12      0.07      0.06      Open
  131                 340.42      0.06      0.03      Open
  132                 -69.87      0.03      0.01      Open
  133                  50.29      0.07      0.16      Open
  134                3669.00      0.34      0.00      Open
  135                3669.00      0.60      2.14      Open
  136                3669.00      1.35     15.41      Open
  
