  Page 1                                          2024/11/28 ¤U¤È 11:05:29
  **********************************************************************
  *                             E P A N E T                            *
  *                     Hydraulic and Water Quality                    *
  *                     Analysis for Pipe Networks                     *
  *                           Version 2.2                              *
  **********************************************************************
  
  Input File: SinglePattern.inp
  
  
  
  Link - Node Table:
  ----------------------------------------------------------------------
  Link           Start          End                Length  Diameter
  ID             Node           Node                    m        mm
  ----------------------------------------------------------------------
  1              7              2                    1313       100
  2              5              3                     342       200
  4              1              8                     374       100
  5              7              4                     324        12
  9              12             13                    424       100
  10             13             11                    263       100
  11             15             12                    225       100
  12             10             14                    356       100
  13             21             20                    327       100
  14             20             18                   3689       100
  15             18             19                    458       100
  16             19             17                    428       100
  17             17             16                     74       100
  18             22             21                    462       100
  19             30             23                    470       100
  20             23             26                    169       100
  21             23             24                    469       100
  22             24             25                   9764       100
  23             23             29                    369       100
  25             28             27                    247       100
  26             31             30                    569       100
  27             19             32                     26       100
  28             32             33                   2436       100
  30             25             34                    852       100
  31             33             34                   4376       100
  32             35             20                    124       100
  33             36             32                    468       100
  34             33             37                   4376       100
  35             37             38                    124       100
  24             29             28                    200       100
  38             40             42                   1000       100
  39             39             41                   1000       100
  29             1              39                   1000       100
  36             1              2                    1000        12
  40             43             6                    1000       100
  7              4              9                    #N/A      #N/A Pump
  8              14             15                   #N/A      #N/A Pump


  Page 2                                                                
  Link - Node Table: (continued)
  ----------------------------------------------------------------------
  Link           Start          End                Length  Diameter
  ID             Node           Node                    m        mm
  ----------------------------------------------------------------------
  37             27             40                   #N/A       100 Valve
  3              9              43                   #N/A       100 Valve
  
  Energy Usage:
  ----------------------------------------------------------------------
                    Usage   Avg.     Kw-hr      Avg.      Peak      Cost
  Pump             Factor Effic.     /m3        Kw        Kw      /day
  ----------------------------------------------------------------------
  7                100.00  75.00      0.24      0.00      0.00      0.00
  8                100.00  75.00      0.13      1.77      1.77      0.00
  ----------------------------------------------------------------------
                                                Demand Charge:      0.00
                                                Total Cost:         0.00
  
  Node Results:
  ----------------------------------------------------------------------
  Node                Demand      Head  Pressure   Quality
  ID                     CMD         m         m          
  ----------------------------------------------------------------------
  1                    20.00     61.98     41.98      0.00
  2                    20.00     55.97     20.97      0.00
  3                    30.00     55.00     35.00      0.00
  4                     0.00     56.00     36.00      0.00
  9                     0.00    122.67    102.67      0.00
  12                   20.00    102.97     42.97      0.00
  13                   20.00    101.05     21.05      0.00
  14                    0.00     68.19     48.19      0.00
  15                    0.00    104.11     84.11      0.00
  16                    2.00     79.25      9.25      0.00
  17                    2.00     79.25     19.25      0.00
  18                    2.00     79.32     39.32      0.00
  19                    2.00     79.25     24.25      0.00
  20                    2.00     79.87     49.87      0.00
  21                    2.00     79.92     54.92      0.00
  23                    6.00     79.34     55.34      0.00
  24                    5.00     79.33     43.33      0.00
  25                    5.00     79.21     32.21      0.00
  26                    0.00     79.34     79.34      0.00
  27                    3.00     79.25      9.25      0.00
  28                    3.00     79.26      9.26      0.00
  29                   30.00     79.27     33.27      0.00
  30                   44.00     79.52     33.52      0.00
  32                   20.00     79.25     74.25      0.00
  33                   10.00     79.21     71.21      0.00
  34                    7.00     79.21     25.21      0.00
  35                    0.00     79.87     79.87      0.00
  36                    5.00     79.25     29.25      0.00


  Page 3                                                                
  Node Results: (continued)
  ----------------------------------------------------------------------
  Node                Demand      Head  Pressure   Quality
  ID                     CMD         m         m          
  ----------------------------------------------------------------------
  37                    4.00     79.19     29.19      0.00
  38                    2.00     79.19     19.19      0.00
  39                    5.00     61.97     41.97      0.00
  40                   10.00     79.25     19.25      0.00
  41                    5.00     61.96     41.96      0.00
  42                   10.00     79.24     19.24      0.00
  43                    0.00     90.00     90.00      0.00
  7                   -18.65     56.00      0.00      0.00 Reservoir
  8                   -31.35     62.00      0.00      0.00 Reservoir
  10                 -325.75     70.00      0.00      0.00 Reservoir
  22                  -52.42     80.00      0.00      0.00 Reservoir
  31                 -123.58     80.00      0.00      0.00 Reservoir
  5                   -30.00     55.00     10.00      0.00 Tank
  6                     0.00     90.00     10.00      0.00 Tank
  11                  285.75    100.00     10.00      0.00 Tank
  
  Link Results:
  ----------------------------------------------------------------------
  Link                  Flow  VelocityUnit Headloss    Status
  ID                     CMD       m/s      m/km
  ----------------------------------------------------------------------
  1                    18.65      0.03      0.03      Open
  2                    30.00      0.01      0.00      Open
  4                   -31.35      0.05      0.07      Open
  5                     0.00      0.00      0.00      Open
  9                   305.75      0.45      4.52      Open
  10                  285.75      0.42      3.99      Open
  11                  325.75      0.48      5.09      Open
  12                  325.75      0.48      5.09      Open
  13                   50.42      0.07      0.16      Open
  14                   48.42      0.07      0.15      Open
  15                   46.42      0.07      0.14      Open
  16                    4.00      0.01      0.00      Open
  17                    2.00      0.00      0.00      Open
  18                   52.42      0.08      0.17      Open
  19                   79.58      0.12      0.37      Open
  20                    0.00      0.00      0.00      Open
  21                   17.58      0.03      0.02      Open
  22                   12.58      0.02      0.01      Open
  23                   56.00      0.08      0.20      Open
  25                   23.00      0.03      0.04      Open
  26                  123.58      0.18      0.85      Open
  27                   40.42      0.06      0.11      Open
  28                   15.42      0.02      0.02      Open
  30                    7.58      0.01      0.00      Open
  31                   -0.58      0.00      0.00      Open
  32                    0.00      0.00      0.00      Open


  Page 4                                                                
  Link Results: (continued)
  ----------------------------------------------------------------------
  Link                  Flow  VelocityUnit Headloss    Status
  ID                     CMD       m/s      m/km
  ----------------------------------------------------------------------
  33                   -5.00      0.01      0.00      Open
  34                    6.00      0.01      0.00      Open
  35                    2.00      0.00      0.00      Open
  24                   26.00      0.04      0.05      Open
  38                   10.00      0.01      0.01      Open
  39                    5.00      0.01      0.00      Open
  29                   10.00      0.01      0.01      Open
  36                    1.35      0.14      6.01      Open
  40                    0.00      0.00      0.00      Open
  7                     0.00      0.00    -66.67      Open Pump
  8                   325.75      0.00    -35.92      Open Pump
  37                   20.00      0.03      0.00      Open Valve
  3                     0.00      0.00      0.00    Closed Valve
  
