  Page 1                                          2024/11/28 下午 09:31:43
  **********************************************************************
  *                             E P A N E T                            *
  *                     Hydraulic and Water Quality                    *
  *                     Analysis for Pipe Networks                     *
  *                           Version 2.2                              *
  **********************************************************************
  
  Input File: 海悅山莊0720-3水力分析(改).net
  
  
  
  Link - Node Table:
  ----------------------------------------------------------------------
  Link           Start          End                Length  Diameter
  ID             Node           Node                    m        mm
  ----------------------------------------------------------------------
  3              3              4                     150       200
  8              10             9                     120       200
  10             13             11                    100       200
  11             13             12                    168       200
  12             12             10                    140       200
  13             7              8                     100       300
  23             4              5                     145       200
  2              6              3                     135       200
  21             8              9                      45       200
  7              7              10                     45       200
  17             5              16                    100       200
  24             21             23                    110       200
  25             23             15                    135       200
  20             14             17                    105       200
  22             17             21                    100       200
  31             19             1                     850       300
  32             1              24                    445       300
  33             22             14                    771       300
  5              7              2                     100       300
  1              5              18                    200       200
  4              18             20                    110       200
  6              20             4                     200       200
  16             9              13                    320       200
  18             14             26                     35       300
  19             27             8                      35       300
  14             26             27                   #N/A       300 Valve
  


  Page 2                                                                
  Node Results at 0:00 Hrs:
  ----------------------------------------------------------------------
  Node                Demand      Head  Pressure   Quality
  ID                     CMD         m         m          
  ----------------------------------------------------------------------
  3                     0.00    115.45     19.45      0.00
  4                     0.00    115.46      9.46      0.00
  5                     0.00    115.48      9.48      0.00
  7                     0.00    131.99     14.99      0.00
  8                   236.80    132.00     12.00      0.00
  9                     0.00    131.99     22.99      0.00
  10                    0.00    131.99     14.99      0.00
  11                  128.80    131.98     35.98      0.00
  12                   64.00    131.99      6.99      0.00
  13                    0.00    131.99     28.99      0.00
  14                   97.60    162.82     37.82      0.00
  15                   57.60    162.81     29.81      0.00
  21                   27.20    162.81     43.81      0.00
  6                   196.00    115.44     33.44      0.00
  23                   64.80    162.81     35.81      0.00
  17                   28.80    162.82     38.82      0.00
  1                     0.00    175.81     16.81      0.00
  2                   392.00    131.99     19.99      0.00
  24                 1080.80    175.71     12.71      0.00
  18                  100.00    115.46      5.46      0.00
  20                   96.00    115.46     10.46      0.00
  26                    0.00    162.82     40.82      0.00
  27                    0.00    132.00     10.00      0.00
  19                -1080.80    176.00      0.00      0.00 Reservoir
  16                 -392.00    115.50      0.00      0.00 Reservoir
  22                -1097.60    163.00      0.00      0.00 Reservoir
  
  Link Results at 0:00 Hrs:
  ----------------------------------------------------------------------
  Link                  Flow  VelocityUnit Headloss    Status
  ID                     CMD       m/s      m/km
  ----------------------------------------------------------------------
  3                  -196.00      0.07      0.07      Open
  8                   -79.71      0.03      0.01      Open
  10                  128.80      0.05      0.03      Open
  11                  -39.64      0.01      0.00      Open
  12                 -103.64      0.04      0.02      Open
  13                 -415.94      0.07      0.04      Open
  23                 -217.61      0.08      0.08      Open
  2                  -196.00      0.07      0.07      Open
  21                  168.86      0.06      0.05      Open
  7                    23.94      0.01      0.00      Open
  17                 -392.00      0.14      0.24      Open
  24                  122.40      0.05      0.03      Open
  25                   57.60      0.02      0.01      Open
  20                  178.40      0.07      0.06      Open
  22                  149.60      0.06      0.04      Open


  Page 3                                                                
  Link Results at 0:00 Hrs: (continued)
  ----------------------------------------------------------------------
  Link                  Flow  VelocityUnit Headloss    Status
  ID                     CMD       m/s      m/km
  ----------------------------------------------------------------------
  31                 1080.80      0.18      0.22      Open
  32                 1080.80      0.18      0.22      Open
  33                 1097.60      0.18      0.23      Open
  5                   392.00      0.06      0.03      Open
  1                   174.39      0.06      0.05      Open
  4                    74.39      0.03      0.01      Open
  6                   -21.61      0.01      0.00      Open
  16                   89.16      0.03      0.02      Open
  18                  821.60      0.13      0.13      Open
  19                  821.60      0.13      0.13      Open
  14                  821.60      0.13     30.82    Active Valve
  
  Node Results at 1:00 Hrs:
  ----------------------------------------------------------------------
  Node                Demand      Head  Pressure   Quality
  ID                     CMD         m         m          
  ----------------------------------------------------------------------
  3                     0.00    115.35     19.35      0.00
  4                     0.00    115.38      9.38      0.00
  5                     0.00    115.42      9.42      0.00
  7                     0.00    131.97     14.97      0.00
  8                   444.00    131.99     11.98      0.00
  9                     0.00    131.98     22.98      0.00
  10                    0.00    131.97     14.97      0.00
  11                  241.50    131.95     35.95      0.00
  12                  120.00    131.96      6.96      0.00
  13                    0.00    131.96     28.96      0.00
  14                  183.00    162.43     37.43      0.00
  15                  108.00    162.39     29.39      0.00
  21                   51.00    162.40     43.40      0.00
  6                   367.50    115.32     33.32      0.00
  23                  121.50    162.39     35.39      0.00
  17                   54.00    162.42     38.42      0.00
  1                     0.00    175.39     16.39      0.00
  2                   735.00    131.96     19.96      0.00
  24                 2026.50    175.08     12.08      0.00
  18                  187.50    115.39      5.39      0.00
  20                  180.00    115.38     10.38      0.00
  26                    0.00    162.42     40.42      0.00
  27                    0.00    132.00     10.00      0.00
  19                -2026.50    176.00      0.00      0.00 Reservoir
  16                 -735.00    115.50      0.00      0.00 Reservoir
  22                -2058.00    163.00      0.00      0.00 Reservoir
  


  Page 4                                                                
  Link Results at 1:00 Hrs:
  ----------------------------------------------------------------------
  Link                  Flow  VelocityUnit Headloss    Status
  ID                     CMD       m/s      m/km
  ----------------------------------------------------------------------
  3                  -367.50      0.14      0.22      Open
  8                  -149.45      0.06      0.04      Open
  10                  241.50      0.09      0.10      Open
  11                  -74.33      0.03      0.01      Open
  12                 -194.33      0.07      0.07      Open
  13                 -779.88      0.13      0.12      Open
  23                 -408.03      0.15      0.26      Open
  2                  -367.50      0.14      0.22      Open
  21                  316.62      0.12      0.16      Open
  7                    44.88      0.02      0.00      Open
  17                 -735.00      0.27      0.78      Open
  24                  229.50      0.08      0.09      Open
  25                  108.00      0.04      0.02      Open
  20                  334.50      0.12      0.18      Open
  22                  280.50      0.10      0.13      Open
  31                 2026.50      0.33      0.71      Open
  32                 2026.50      0.33      0.71      Open
  33                 2058.00      0.34      0.73      Open
  5                   735.00      0.12      0.11      Open
  1                   326.97      0.12      0.18      Open
  4                   139.47      0.05      0.04      Open
  6                   -40.53      0.01      0.00      Open
  16                  167.17      0.06      0.05      Open
  18                 1540.50      0.25      0.43      Open
  19                 1540.50      0.25      0.43      Open
  14                 1540.50      0.25     30.42    Active Valve
  
  Node Results at 2:00 Hrs:
  ----------------------------------------------------------------------
  Node                Demand      Head  Pressure   Quality
  ID                     CMD         m         m          
  ----------------------------------------------------------------------
  3                     0.00    115.43     19.43      0.00
  4                     0.00    115.44      9.44      0.00
  5                     0.00    115.46      9.46      0.00
  7                     0.00    131.99     14.99      0.00
  8                   296.00    131.99     11.99      0.00
  9                     0.00    131.99     22.99      0.00
  10                    0.00    131.99     14.99      0.00
  11                  161.00    131.98     35.98      0.00
  12                   80.00    131.98      6.98      0.00
  13                    0.00    131.98     28.98      0.00
  14                  122.00    162.73     37.73      0.00
  15                   72.00    162.71     29.71      0.00
  21                   34.00    162.72     43.72      0.00
  6                   245.00    115.42     33.42      0.00
  23                   81.00    162.71     35.71      0.00


  Page 5                                                                
  Node Results at 2:00 Hrs: (continued)
  ----------------------------------------------------------------------
  Node                Demand      Head  Pressure   Quality
  ID                     CMD         m         m          
  ----------------------------------------------------------------------
  17                   36.00    162.72     38.72      0.00
  1                     0.00    175.71     16.71      0.00
  2                   490.00    131.98     19.98      0.00
  24                 1351.00    175.56     12.56      0.00
  18                  125.00    115.45      5.45      0.00
  20                  120.00    115.44     10.44      0.00
  26                    0.00    162.73     40.73      0.00
  27                    0.00    132.00     10.00      0.00
  19                -1351.00    176.00      0.00      0.00 Reservoir
  16                 -490.00    115.50      0.00      0.00 Reservoir
  22                -1372.00    163.00      0.00      0.00 Reservoir
  
  Link Results at 2:00 Hrs:
  ----------------------------------------------------------------------
  Link                  Flow  VelocityUnit Headloss    Status
  ID                     CMD       m/s      m/km
  ----------------------------------------------------------------------
  3                  -245.00      0.09      0.10      Open
  8                   -99.63      0.04      0.02      Open
  10                  161.00      0.06      0.05      Open
  11                  -49.56      0.02      0.01      Open
  12                 -129.56      0.05      0.03      Open
  13                 -519.92      0.09      0.06      Open
  23                 -272.02      0.10      0.12      Open
  2                  -245.00      0.09      0.10      Open
  21                  211.08      0.08      0.08      Open
  7                    29.92      0.01      0.00      Open
  17                 -490.00      0.18      0.37      Open
  24                  153.00      0.06      0.04      Open
  25                   72.00      0.03      0.01      Open
  20                  223.00      0.08      0.09      Open
  22                  187.00      0.07      0.06      Open
  31                 1351.00      0.22      0.34      Open
  32                 1351.00      0.22      0.34      Open
  33                 1372.00      0.22      0.35      Open
  5                   490.00      0.08      0.05      Open
  1                   217.98      0.08      0.08      Open
  4                    92.98      0.03      0.02      Open
  6                   -27.02      0.01      0.00      Open
  16                  111.44      0.04      0.02      Open
  18                 1027.00      0.17      0.20      Open
  19                 1027.00      0.17      0.20      Open
  14                 1027.00      0.17     30.73    Active Valve
  


  Page 6                                                                
  Node Results at 3:00 Hrs:
  ----------------------------------------------------------------------
  Node                Demand      Head  Pressure   Quality
  ID                     CMD         m         m          
  ----------------------------------------------------------------------
  3                     0.00    115.45     19.45      0.00
  4                     0.00    115.46      9.46      0.00
  5                     0.00    115.48      9.48      0.00
  7                     0.00    131.99     14.99      0.00
  8                   236.80    132.00     12.00      0.00
  9                     0.00    131.99     22.99      0.00
  10                    0.00    131.99     14.99      0.00
  11                  128.80    131.98     35.98      0.00
  12                   64.00    131.99      6.99      0.00
  13                    0.00    131.99     28.99      0.00
  14                   97.60    162.82     37.82      0.00
  15                   57.60    162.81     29.81      0.00
  21                   27.20    162.81     43.81      0.00
  6                   196.00    115.44     33.44      0.00
  23                   64.80    162.81     35.81      0.00
  17                   28.80    162.82     38.82      0.00
  1                     0.00    175.81     16.81      0.00
  2                   392.00    131.99     19.99      0.00
  24                 1080.80    175.71     12.71      0.00
  18                  100.00    115.46      5.46      0.00
  20                   96.00    115.46     10.46      0.00
  26                    0.00    162.82     40.82      0.00
  27                    0.00    132.00     10.00      0.00
  19                -1080.80    176.00      0.00      0.00 Reservoir
  16                 -392.00    115.50      0.00      0.00 Reservoir
  22                -1097.60    163.00      0.00      0.00 Reservoir
  
  Link Results at 3:00 Hrs:
  ----------------------------------------------------------------------
  Link                  Flow  VelocityUnit Headloss    Status
  ID                     CMD       m/s      m/km
  ----------------------------------------------------------------------
  3                  -196.00      0.07      0.07      Open
  8                   -79.71      0.03      0.01      Open
  10                  128.80      0.05      0.03      Open
  11                  -39.64      0.01      0.00      Open
  12                 -103.64      0.04      0.02      Open
  13                 -415.94      0.07      0.04      Open
  23                 -217.61      0.08      0.08      Open
  2                  -196.00      0.07      0.07      Open
  21                  168.86      0.06      0.05      Open
  7                    23.94      0.01      0.00      Open
  17                 -392.00      0.14      0.24      Open
  24                  122.40      0.05      0.03      Open
  25                   57.60      0.02      0.01      Open
  20                  178.40      0.07      0.06      Open
  22                  149.60      0.06      0.04      Open


  Page 7                                                                
  Link Results at 3:00 Hrs: (continued)
  ----------------------------------------------------------------------
  Link                  Flow  VelocityUnit Headloss    Status
  ID                     CMD       m/s      m/km
  ----------------------------------------------------------------------
  31                 1080.80      0.18      0.22      Open
  32                 1080.80      0.18      0.22      Open
  33                 1097.60      0.18      0.23      Open
  5                   392.00      0.06      0.03      Open
  1                   174.39      0.06      0.05      Open
  4                    74.39      0.03      0.01      Open
  6                   -21.61      0.01      0.00      Open
  16                   89.16      0.03      0.02      Open
  18                  821.60      0.13      0.13      Open
  19                  821.60      0.13      0.13      Open
  14                  821.60      0.13     30.82    Active Valve
  
