  **********************************************************************
  *                             E P A N E T                            *
  *                     Hydraulic and Water Quality                    *
  *                     Analysis for Pipe Networks                     *
  *                           Version 2.2                              *
  **********************************************************************
  
  Input File: test.net
  
  
  
  Link - Node Table:
  ----------------------------------------------------------------------
  Link           Start          End                Length  Diameter
  ID             Node           Node                    m        mm
  ----------------------------------------------------------------------
  1              7              2                    1313       100
  2              5              3                     342       200
  4              1              8                     374       100
  3              1              2                     535       200
  5              7              4                     324        12
  6              9              6                     342        12
  9              12             13                    424        12
  10             13             11                    263        12
  11             15             12                    225        12
  12             10             14                    356        12
  13             21             20                    327        12
  14             20             18                   3689        12
  15             18             19                    458        12
  16             19             17                    428        12
  17             17             16                     74        12
  18             22             21                    462        12
  19             30             23                    470        12
  20             23             26                    169        12
  21             23             24                    469        12
  22             24             25                   9764        12
  23             23             29                    369        12
  25             28             27                    247        12
  26             31             30                    569        12
  27             19             32                     26        12
  28             32             33                   2436        12
  29             12             34                    236        12
  30             25             34                    852        12
  31             33             34                   4376        12
  32             35             20                    124        12
  33             36             32                    468        12
  34             33             37                   4376        12
  35             37             38                    124        12
  24             29             28                   5425        12
  38             40             42                   1000        12
  39             39             41                   1000        12
  7              4              9                    #N/A      #N/A Pump
  8              14             15                   #N/A      #N/A Pump
  36             39             1                    #N/A        12 Valve
  37             27             40                   #N/A        12 Valve
  
  Energy Usage:
  ----------------------------------------------------------------------
                    Usage   Avg.     Kw-hr      Avg.      Peak      Cost
  Pump             Factor Effic.     /m3        Kw        Kw      /day
  ----------------------------------------------------------------------
  7                100.00  75.00      0.38      0.10      0.10      0.00
  8                100.00  75.00      0.20      0.35      0.35      0.00
  ----------------------------------------------------------------------
                                                Demand Charge:      0.00
                                                Total Cost:         0.00
  
  Node Results:
  ----------------------------------------------------------------------
  Node                Demand      Head  Pressure   Quality
  ID                     CMD         m         m          
  ----------------------------------------------------------------------
  1                    20.00     60.31     40.31      0.00
  2                    20.00     60.25     25.25      0.00
  3                    30.00     55.00     35.00      0.00
  4                     0.00     21.24      1.24      0.00
  9                     0.00    126.69    106.69      0.00
  12                   20.00  -1927.13  -1987.13      0.00
  13                   20.00  -1151.79  -1231.79      0.00
  14                    0.00  -1206.95  -1226.95      0.00
  15                    0.00  -1151.67  -1171.67      0.00
  16                    2.00  -7871.46  -7941.46      0.00
  17                    2.00  -7870.54  -7930.54      0.00
  18                    2.00  -7227.37  -7267.37      0.00
  19                    2.00  -7851.29  -7906.29      0.00
  20                    2.00  -1439.36  -1469.36      0.00
  21                    2.00   -854.33   -879.33      0.00
  23                    6.00 -10951.07 -10975.07      0.00
  24                    5.00 -10778.25 -10814.25      0.00
  25                    5.00  -4055.78  -4102.77      0.00
  26                    0.00 -10951.07 -10951.07      0.00
  27                    3.00 -21247.06 -21337.06      0.00
  28                    3.00 -20963.64 -21033.64      0.00
  29                   30.00 -13151.69 -13197.69      0.00
  30                   44.00  -8716.88  -8762.88      0.00
  32                   20.00  -7872.71  -7877.71      0.00
  33                   10.00  -7656.79  -7664.79      0.00
  34                    7.00  -3120.48  -3174.48      0.00
  35                    0.00  -1439.36  -1439.36      0.00
  36                    5.00  -7904.52  -7954.52      0.00
  37                    4.00  -8073.78  -8123.78      0.00
  38                    2.00  -8075.33  -8135.33      0.00
  39                    5.00 -124520.70 -124540.70      0.00
  40                   10.00 -21247.06 -21317.06      0.00
  41                    5.00 -124588.70 -124608.70      0.00
  42                   10.00 -21492.48 -21562.48      0.00
  7                   248.69     56.00      0.00      0.00 Reservoir
  8                  -305.09     62.00      0.00      0.00 Reservoir
  10                  -41.65     20.00      0.00      0.00 Reservoir
  22                  -31.23     80.00      0.00      0.00 Reservoir
  31                  -93.54     60.00      0.00      0.00 Reservoir
  5                   -30.00     55.00     10.00      0.00 Tank
  6                     6.40     90.00     10.00      0.00 Tank
  11                  -49.58    100.00     10.00      0.00 Tank
  
  Link Results:
  ----------------------------------------------------------------------
  Link                  Flow  VelocityUnit Headloss    Status
  ID                     CMD       m/s      m/km
  ----------------------------------------------------------------------
  1                  -255.09      0.38      3.23      Open
  2                    30.00      0.01      0.00      Open
  4                  -305.09      0.45      4.51      Open
  3                   275.09      0.10      0.13      Open
  5                     6.40      0.65    107.29      Open
  6                     6.40      0.65    107.29      Open
  9                   -29.58      3.03   1828.63      Open
  10                  -49.58      5.07   4759.65      Open
  11                   41.65      4.26   3446.48      Open
  12                   41.65      4.26   3446.48      Open
  13                   29.23      2.99   1789.07      Open
  14                   27.23      2.79   1568.99      Open
  15                   25.23      2.58   1362.27      Open
  16                    4.00      0.41     44.97      Open
  17                    2.00      0.20     12.45      Open
  18                   31.23      3.20   2022.37      Open
  19                   49.54      5.07   4753.62      Open
  20                    0.00      0.00      0.00      Open
  21                  -12.45      1.27    368.49      Open
  22                  -17.45      1.79    688.50      Open
  23                   56.00      5.73   5963.73      Open
  25                   23.00      2.35   1147.45      Open
  26                   93.54      9.57  15425.09      Open
  27                   19.23      1.97    823.84      Open
  28                   -5.77      0.59     88.64      Open
  29                   51.22      5.24   5056.58      Open
  30                  -22.45      2.30   1097.76      Open
  31                  -21.77      2.23   1036.63      Open
  32                    0.00      0.00      0.00      Open
  33                   -5.00      0.51     67.98      Open
  34                    6.00      0.61     95.29      Open
  35                    2.00      0.20     12.46      Open
  24                   26.00      2.66   1439.99      Open
  38                   10.00      1.02    245.42      Open
  39                    5.00      0.51     67.99      Open
  7                     6.40      0.00   -105.45      Open Pump
  8                    41.65      0.00    -55.28      Open Pump
  36                    0.00      0.00      0.00    Closed Valve
  37                   20.01      2.05      0.00      Open Valve
[END]