  **********************************************************************
  *                             E P A N E T                            *
  *                     Hydraulic and Water Quality                    *
  *                     Analysis for Pipe Networks                     *
  *                           Version 2.2                              *
  **********************************************************************
  
  Input File: test.inp
  
  
  
  Link - Node Table:
  ----------------------------------------------------------------------
  Link           Start          End                Length  Diameter
  ID             Node           Node                    m        mm
  ----------------------------------------------------------------------
  1              7              2                    1313       100
  2              5              3                     342       200
  4              1              8                     374       100
  3              1              2                     535       200
  5              7              4                     324        12
  6              9              6                     342        12
  9              12             13                    424        12
  10             13             11                    263        12
  11             15             12                    225        12
  12             10             14                    356        12
  13             21             20                    327        12
  14             20             18                   3689        12
  15             18             19                    458        12
  16             19             17                    428        12
  17             17             16                     74        12
  18             22             21                    462        12
  19             30             23                    470        12
  20             23             26                    169        12
  21             23             24                    469        12
  22             24             25                   9764        12
  23             23             29                    369        12
  24             29             28                    257        12
  25             28             27                    247        12
  26             31             30                    569        12
  27             19             32                     26        12
  28             32             33                   2436        12
  29             12             34                    236        12
  30             25             34                    852        12
  31             33             34                   4376        12
  32             35             20                    124        12
  33             36             32                    468        12
  34             33             37                   4376        12
  35             37             38                    124        12
  7              4              9                    #N/A      #N/A Pump
  8              14             15                   #N/A      #N/A Pump
  
  Energy Usage:
  ----------------------------------------------------------------------
                    Usage   Avg.     Kw-hr      Avg.      Peak      Cost
  Pump             Factor Effic.     /m3        Kw        Kw      /day
  ----------------------------------------------------------------------
  7                100.00  75.00      0.38      0.10      0.10      0.00
  8                100.00  75.00      0.36      0.24      0.24      0.00
  ----------------------------------------------------------------------
                                                Demand Charge:      0.00
                                                Total Cost:         0.00
  
  Node Results:
  ----------------------------------------------------------------------
  Node                Demand      Head  Pressure   Quality
  ID                     CMD         m         m          
  ----------------------------------------------------------------------
  1                    20.00     60.39     40.39      0.00
  2                    20.00     60.32     25.32      0.00
  3                    30.00     55.00     35.00      0.00
  4                     0.00     21.24      1.24      0.00
  9                     0.00    126.69    106.69      0.00
  12                   20.00   -231.08   -291.08      0.00
  13                   20.00   -213.20   -293.20      0.00
  14                    0.00   -194.42   -214.42      0.00
  15                    0.00    -95.57   -115.57      0.00
  16                    2.00   -403.26   -473.26      0.00
  17                    2.00   -402.34   -462.34      0.00
  18                    2.00   -368.94   -408.94      0.00
  19                    2.00   -383.09   -438.09      0.00
  20                    2.00    -92.88   -122.88      0.00
  21                    2.00    -48.46    -73.46      0.00
  23                    0.00     -1.52     -1.52      0.00
  24                    0.00    -11.23    -11.23      0.00
  25                    0.00   -213.45   -213.45      0.00
  26                    0.00     -1.52     -1.52      0.00
  27                    0.00     -1.52     -1.52      0.00
  28                    0.00     -1.52     -1.52      0.00
  29                    0.00     -1.52     -1.52      0.00
  30                    0.00      8.22      8.22      0.00
  32                    0.00   -382.51   -382.51      0.00
  33                    0.00   -328.37   -328.37      0.00
  34                    0.00   -231.10   -231.10      0.00
  35                    0.00    -92.88    -92.88      0.00
  36                    0.00   -382.51   -382.51      0.00
  37                    0.00   -328.37   -328.37      0.00
  38                    0.00   -328.37   -328.37      0.00
  7                   251.13     56.00      0.00      0.00 Reservoir
  8                  -297.53     62.00      0.00      0.00 Reservoir
  10                  -16.24     20.00      0.00      0.00 Reservoir
  22                   -9.27     50.00      0.00      0.00 Reservoir
  31                   -2.63     20.00      0.00      0.00 Reservoir
  5                   -30.00     55.00     10.00      0.00 Tank
  6                     6.40     90.00     10.00      0.00 Tank
  11                  -23.86    110.00     10.00      0.00 Tank
  
  Link Results:
  ----------------------------------------------------------------------
  Link                  Flow  VelocityUnit Headloss    Status
  ID                     CMD       m/s      m/km
  ----------------------------------------------------------------------
  1                  -257.53      0.38      3.29      Open
  2                    30.00      0.01      0.00      Open
  4                  -297.53      0.44      4.30      Open
  3                   277.53      0.10      0.13      Open
  5                     6.40      0.65    107.29      Open
  6                     6.40      0.65    107.29      Open
  9                    -3.86      0.40     42.19      Open
  10                  -23.86      2.44   1228.88      Open
  11                   16.24      1.66    602.31      Open
  12                   16.24      1.66    602.31      Open
  13                    7.27      0.74    135.84      Open
  14                    5.27      0.54     74.83      Open
  15                    3.27      0.33     30.89      Open
  16                    4.00      0.41     44.97      Open
  17                    2.00      0.20     12.46      Open
  18                    9.27      0.95    213.11      Open
  19                    2.63      0.27     20.71      Open
  20                    0.00      0.00      0.00      Open
  21                    2.63      0.27     20.71      Open
  22                    2.63      0.27     20.71      Open
  23                    0.00      0.00      0.00      Open
  24                    0.00      0.00      0.00      Open
  25                    0.00      0.00      0.00      Open
  26                    2.63      0.27     20.71      Open
  27                   -2.73      0.28     22.23      Open
  28                   -2.73      0.28     22.23      Open
  29                    0.10      0.01      0.05      Open
  30                    2.63      0.27     20.71      Open
  31                   -2.73      0.28     22.23      Open
  32                    0.00      0.00      0.00      Open
  33                    0.00      0.00      0.00      Open
  34                    0.00      0.00      0.00      Open
  35                    0.00      0.00      0.00      Open
  7                     6.40      0.00   -105.45      Open Pump
  8                    16.24      0.00    -98.85      Open Pump
[END]