  **********************************************************************
  *                             E P A N E T                            *
  *                     Hydraulic and Water Quality                    *
  *                     Analysis for Pipe Networks                     *
  *                           Version 2.2                              *
  **********************************************************************
  
  Input File: 銅鑼鄉健康照護園區-水力分析.net
  
  
  
  Link - Node Table:
  ----------------------------------------------------------------------
  Link           Start          End                Length  Diameter
  ID             Node           Node                    m        mm
  ----------------------------------------------------------------------
  1              1              配水池1                  406       100
  2              2              配水池2                  728       100
  3              3              配水池3                  936       100
  4              4              5                     874       100
  5              6              7                      20       100
  6              5              配水池4                    5       100
  7              配水池4           6                       5       100
  抽水機1           接水點1           1                    #N/A      #N/A Pump
  抽水機2           配水池1           2                    #N/A      #N/A Pump
  抽水機3           配水池2           3                    #N/A      #N/A Pump
  抽水機4           配水池3           4                    #N/A      #N/A Pump
  
  Energy Usage:
  ----------------------------------------------------------------------
                    Usage   Avg.     Kw-hr      Avg.      Peak      Cost
  Pump             Factor Effic.     /m3        Kw        Kw      /day
  ----------------------------------------------------------------------
  抽水機1             100.00  75.00      0.17      1.40      2.28      0.00
  抽水機2             100.00  75.00      0.30      2.37      3.98      0.00
  抽水機3             100.00  75.00      0.31      2.80      4.32      0.00
  抽水機4             100.00  75.00      0.20      1.58      2.67      0.00
  ----------------------------------------------------------------------
                                                Demand Charge:      0.00
                                                Total Cost:         0.00
  
  Node Results at 0:00 Hrs:
  ----------------------------------------------------------------------
  Node                Demand      Head  Pressure   Quality
  ID                     CMD         m         m          
  ----------------------------------------------------------------------
  1                        0     301.7      86.7      0.00
  2                        0     385.0     125.0      0.00
  3                        0     435.0     125.0      0.00
  4                        0     455.0      85.0      0.00
  7                      168     405.0       5.0      0.00
  5                        0     455.0      55.0      0.00
  6                        0     405.0       5.0      0.00
  接水點1                     0     235.0       0.0      0.00 Reservoir
  配水池1                     0     265.0       5.0      0.00 Tank
  配水池2                     0     315.0       5.0      0.00 Tank
  配水池3                     0     375.0       5.0      0.00 Tank
  配水池4                  -168     405.0       5.0      0.00 Tank
  
  Link Results at 0:00 Hrs:
  ----------------------------------------------------------------------
  Link                  Flow  VelocityUnit Headloss    Status
  ID                     CMD       m/s      m/km
  ----------------------------------------------------------------------
  1                        0      0.00      0.00    Closed
  2                        0      0.00      0.00    Closed
  3                        0      0.00      0.00    Closed
  4                        0      0.00      0.00      Open
  5                      168      0.25      1.25      Open
  6                        0      0.00      0.00    Closed
  7                      168      0.25      1.25      Open
  抽水機1                     0      0.00    -66.67      Open Pump
  抽水機2                     0      0.00   -120.00      Open Pump
  抽水機3                     0      0.00   -120.00      Open Pump
  抽水機4                     0      0.00    -80.00      Open Pump
  
  Node Results at 1:00 Hrs:
  ----------------------------------------------------------------------
  Node                Demand      Head  Pressure   Quality
  ID                     CMD         m         m          
  ----------------------------------------------------------------------
  1                        0     301.7      86.7      0.00
  2                        0     385.0     125.0      0.00
  3                        0     435.0     125.0      0.00
  4                        0     412.3      42.3      0.00
  7                      112     404.9       4.9      0.00
  5                        0     405.0       5.0      0.00
  6                        0     404.9       4.9      0.00
  接水點1                     0     235.0       0.0      0.00 Reservoir
  配水池1                     0     265.0       5.0      0.00 Tank
  配水池2                     0     315.0       5.0      0.00 Tank
  配水池3                  -468     375.0       5.0      0.00 Tank
  配水池4                   356     404.9       4.9      0.00 Tank
  
  Link Results at 1:00 Hrs:
  ----------------------------------------------------------------------
  Link                  Flow  VelocityUnit Headloss    Status
  ID                     CMD       m/s      m/km
  ----------------------------------------------------------------------
  1                        0      0.00      0.00    Closed
  2                        0      0.00      0.00    Closed
  3                        0      0.00      0.00    Closed
  4                      468      0.69      8.33      Open
  5                      112      0.17      0.59      Open
  6                      468      0.69      8.33      Open
  7                      112      0.17      0.59      Open
  抽水機1                     0      0.00    -66.67      Open Pump
  抽水機2                     0      0.00   -120.00      Open Pump
  抽水機3                     0      0.00   -120.00      Open Pump
  抽水機4                   468      0.00    -37.26      Open Pump
  
  Node Results at 2:00 Hrs:
  ----------------------------------------------------------------------
  Node                Demand      Head  Pressure   Quality
  ID                     CMD         m         m          
  ----------------------------------------------------------------------
  1                        0     268.2      53.2      0.00
  2                        0     320.7      60.7      0.00
  3                        0     381.5      71.5      0.00
  4                        0     412.3      42.3      0.00
  7                      112     405.0       5.0      0.00
  5                        0     405.0       5.0      0.00
  6                        0     405.0       5.0      0.00
  接水點1                  -454     235.0       0.0      0.00 Reservoir
  配水池1                   -15     265.0       5.0      0.00 Tank
  配水池2                    43     314.6       4.6      0.00 Tank
  配水池3                   -42     375.0       5.0      0.00 Tank
  配水池4                   356     405.0       5.0      0.00 Tank
  
  Link Results at 2:00 Hrs:
  ----------------------------------------------------------------------
  Link                  Flow  VelocityUnit Headloss    Status
  ID                     CMD       m/s      m/km
  ----------------------------------------------------------------------
  1                      454      0.67      7.87      Open
  2                      469      0.69      8.36      Open
  3                      426      0.63      6.99      Open
  4                      468      0.69      8.33      Open
  5                      112      0.17      0.59      Open
  6                      468      0.69      8.32      Open
  7                      112      0.17      0.60      Open
  抽水機1                   454      0.00    -33.18      Open Pump
  抽水機2                   469      0.00    -55.69      Open Pump
  抽水機3                   426      0.00    -66.94      Open Pump
  抽水機4                   468      0.00    -37.31      Open Pump
  
  Node Results at 3:00 Hrs:
  ----------------------------------------------------------------------
  Node                Demand      Head  Pressure   Quality
  ID                     CMD         m         m          
  ----------------------------------------------------------------------
  1                        0     268.2      53.2      0.00
  2                        0     321.0      61.0      0.00
  3                        0     435.0     125.0      0.00
  4                        0     412.3      42.3      0.00
  7                       84     405.0       5.0      0.00
  5                        0     405.0       5.0      0.00
  6                        0     405.0       5.0      0.00
  接水點1                  -454     235.0       0.0      0.00 Reservoir
  配水池1                   -14     265.0       5.0      0.00 Tank
  配水池2                   467     315.0       5.0      0.00 Tank
  配水池3                  -467     375.0       5.0      0.00 Tank
  配水池4                   383     405.0       5.0      0.00 Tank
  
  Link Results at 3:00 Hrs:
  ----------------------------------------------------------------------
  Link                  Flow  VelocityUnit Headloss    Status
  ID                     CMD       m/s      m/km
  ----------------------------------------------------------------------
  1                      454      0.67      7.87      Open
  2                      467      0.69      8.31      Open
  3                        0      0.00      0.00    Closed
  4                      467      0.69      8.32      Open
  5                       84      0.12      0.35      Open
  6                      467      0.69      8.32      Open
  7                       84      0.12      0.35      Open
  抽水機1                   454      0.00    -33.19      Open Pump
  抽水機2                   467      0.00    -56.05      Open Pump
  抽水機3                     0      0.00   -120.00      Open Pump
  抽水機4                   467      0.00    -37.32      Open Pump
  
  Node Results at 4:00 Hrs:
  ----------------------------------------------------------------------
  Node                Demand      Head  Pressure   Quality
  ID                     CMD         m         m          
  ----------------------------------------------------------------------
  1                        0     301.7      86.7      0.00
  2                        0     385.0     125.0      0.00
  3                        0     435.0     125.0      0.00
  4                        0     412.3      42.3      0.00
  7                      140     404.9       4.9      0.00
  5                        0     405.0       5.0      0.00
  6                        0     405.0       5.0      0.00
  接水點1                     0     235.0       0.0      0.00 Reservoir
  配水池1                     0     265.0       5.0      0.00 Tank
  配水池2                     0     315.0       5.0      0.00 Tank
  配水池3                  -468     375.0       5.0      0.00 Tank
  配水池4                   328     405.0       5.0      0.00 Tank
  
  Link Results at 4:00 Hrs:
  ----------------------------------------------------------------------
  Link                  Flow  VelocityUnit Headloss    Status
  ID                     CMD       m/s      m/km
  ----------------------------------------------------------------------
  1                        0      0.00      0.00    Closed
  2                        0      0.00      0.00    Closed
  3                        0      0.00      0.00    Closed
  4                      468      0.69      8.33      Open
  5                      140      0.21      0.89      Open
  6                      468      0.69      8.33      Open
  7                      140      0.21      0.89      Open
  抽水機1                     0      0.00    -66.67      Open Pump
  抽水機2                     0      0.00   -120.00      Open Pump
  抽水機3                     0      0.00   -120.00      Open Pump
  抽水機4                   468      0.00    -37.29      Open Pump
  
  Node Results at 5:00 Hrs:
  ----------------------------------------------------------------------
  Node                Demand      Head  Pressure   Quality
  ID                     CMD         m         m          
  ----------------------------------------------------------------------
  1                        0     268.1      53.1      0.00
  2                        0     321.0      61.0      0.00
  3                        0     435.0     125.0      0.00
  4                        0     412.3      42.3      0.00
  7                      308     404.9       4.9      0.00
  5                        0     405.0       5.0      0.00
  6                        0     405.0       5.0      0.00
  接水點1                  -454     235.0       0.0      0.00 Reservoir
  配水池1                   -13     264.9       4.9      0.00 Tank
  配水池2                   467     315.0       5.0      0.00 Tank
  配水池3                  -467     375.0       5.0      0.00 Tank
  配水池4                   159     405.0       5.0      0.00 Tank
  
  Link Results at 5:00 Hrs:
  ----------------------------------------------------------------------
  Link                  Flow  VelocityUnit Headloss    Status
  ID                     CMD       m/s      m/km
  ----------------------------------------------------------------------
  1                      454      0.67      7.89      Open
  2                      467      0.69      8.30      Open
  3                        0      0.00      0.00    Closed
  4                      467      0.69      8.32      Open
  5                      308      0.45      3.84      Open
  6                      467      0.69      8.32      Open
  7                      308      0.45      3.85      Open
  抽水機1                   454      0.00    -33.09      Open Pump
  抽水機2                   467      0.00    -56.16      Open Pump
  抽水機3                     0      0.00   -120.00      Open Pump
  抽水機4                   467      0.00    -37.32      Open Pump
  
  Node Results at 6:00 Hrs:
  ----------------------------------------------------------------------
  Node                Demand      Head  Pressure   Quality
  ID                     CMD         m         m          
  ----------------------------------------------------------------------
  1                        0     268.2      53.2      0.00
  2                        0     321.0      61.0      0.00
  3                        0     381.6      71.6      0.00
  4                        0     412.3      42.3      0.00
  7                      392     404.8       4.8      0.00
  5                        0     405.0       5.0      0.00
  6                        0     405.0       5.0      0.00
  接水點1                  -454     235.0       0.0      0.00 Reservoir
  配水池1                   -14     265.0       5.0      0.00 Tank
  配水池2                    40     315.0       5.0      0.00 Tank
  配水池3                   -41     375.0       5.0      0.00 Tank
  配水池4                    75     405.0       5.0      0.00 Tank
  
  Link Results at 6:00 Hrs:
  ----------------------------------------------------------------------
  Link                  Flow  VelocityUnit Headloss    Status
  ID                     CMD       m/s      m/km
  ----------------------------------------------------------------------
  1                      454      0.67      7.87      Open
  2                      467      0.69      8.32      Open
  3                      427      0.63      7.04      Open
  4                      467      0.69      8.32      Open
  5                      392      0.58      6.01      Open
  6                      467      0.69      8.33      Open
  7                      392      0.58      6.01      Open
  抽水機1                   454      0.00    -33.19      Open Pump
  抽水機2                   467      0.00    -56.05      Open Pump
  抽水機3                   427      0.00    -66.59      Open Pump
  抽水機4                   467      0.00    -37.32      Open Pump
  
  Node Results at 7:00 Hrs:
  ----------------------------------------------------------------------
  Node                Demand      Head  Pressure   Quality
  ID                     CMD         m         m          
  ----------------------------------------------------------------------
  1                        0     268.1      53.1      0.00
  2                        0     321.0      61.0      0.00
  3                        0     381.5      71.5      0.00
  4                        0     412.3      42.3      0.00
  7                      364     404.9       4.9      0.00
  5                        0     405.0       5.0      0.00
  6                        0     405.0       5.0      0.00
  接水點1                  -454     235.0       0.0      0.00 Reservoir
  配水池1                   -13     264.9       4.9      0.00 Tank
  配水池2                    40     314.9       4.9      0.00 Tank
  配水池3                   -40     374.9       4.9      0.00 Tank
  配水池4                   103     405.0       5.0      0.00 Tank
  
  Link Results at 7:00 Hrs:
  ----------------------------------------------------------------------
  Link                  Flow  VelocityUnit Headloss    Status
  ID                     CMD       m/s      m/km
  ----------------------------------------------------------------------
  1                      454      0.67      7.88      Open
  2                      467      0.69      8.32      Open
  3                      427      0.63      7.03      Open
  4                      467      0.69      8.32      Open
  5                      364      0.54      5.24      Open
  6                      467      0.69      8.32      Open
  7                      364      0.54      5.23      Open
  抽水機1                   454      0.00    -33.14      Open Pump
  抽水機2                   467      0.00    -56.03      Open Pump
  抽水機3                   427      0.00    -66.62      Open Pump
  抽水機4                   467      0.00    -37.36      Open Pump
  
  Node Results at 8:00 Hrs:
  ----------------------------------------------------------------------
  Node                Demand      Head  Pressure   Quality
  ID                     CMD         m         m          
  ----------------------------------------------------------------------
  1                        0     268.0      53.0      0.00
  2                        0     321.0      61.0      0.00
  3                        0     381.5      71.5      0.00
  4                        0     412.3      42.3      0.00
  7                      280     404.9       4.9      0.00
  5                        0     405.0       5.0      0.00
  6                        0     405.0       5.0      0.00
  接水點1                  -455     235.0       0.0      0.00 Reservoir
  配水池1                   -12     264.8       4.8      0.00 Tank
  配水池2                    40     315.0       5.0      0.00 Tank
  配水池3                   -40     375.0       5.0      0.00 Tank
  配水池4                   187     405.0       5.0      0.00 Tank
  
  Link Results at 8:00 Hrs:
  ----------------------------------------------------------------------
  Link                  Flow  VelocityUnit Headloss    Status
  ID                     CMD       m/s      m/km
  ----------------------------------------------------------------------
  1                      455      0.67      7.91      Open
  2                      467      0.69      8.30      Open
  3                      427      0.63      7.04      Open
  4                      467      0.69      8.32      Open
  5                      280      0.41      3.22      Open
  6                      467      0.69      8.32      Open
  7                      280      0.41      3.22      Open
  抽水機1                   455      0.00    -33.03      Open Pump
  抽水機2                   467      0.00    -56.19      Open Pump
  抽水機3                   427      0.00    -66.58      Open Pump
  抽水機4                   467      0.00    -37.34      Open Pump
  
  Node Results at 9:00 Hrs:
  ----------------------------------------------------------------------
  Node                Demand      Head  Pressure   Quality
  ID                     CMD         m         m          
  ----------------------------------------------------------------------
  1                        0     268.2      53.2      0.00
  2                        0     321.0      61.0      0.00
  3                        0     381.6      71.6      0.00
  4                        0     412.3      42.3      0.00
  7                      280     404.9       4.9      0.00
  5                        0     405.0       5.0      0.00
  6                        0     405.0       5.0      0.00
  接水點1                  -454     235.0       0.0      0.00 Reservoir
  配水池1                   -14     265.0       5.0      0.00 Tank
  配水池2                    40     315.0       5.0      0.00 Tank
  配水池3                   -41     375.0       5.0      0.00 Tank
  配水池4                   187     405.0       5.0      0.00 Tank
  
  Link Results at 9:00 Hrs:
  ----------------------------------------------------------------------
  Link                  Flow  VelocityUnit Headloss    Status
  ID                     CMD       m/s      m/km
  ----------------------------------------------------------------------
  1                      454      0.67      7.87      Open
  2                      467      0.69      8.32      Open
  3                      427      0.63      7.04      Open
  4                      467      0.69      8.32      Open
  5                      280      0.41      3.22      Open
  6                      467      0.69      8.33      Open
  7                      280      0.41      3.22      Open
  抽水機1                   454      0.00    -33.19      Open Pump
  抽水機2                   467      0.00    -56.05      Open Pump
  抽水機3                   427      0.00    -66.59      Open Pump
  抽水機4                   467      0.00    -37.32      Open Pump
  
  Node Results at 10:00 Hrs:
  ----------------------------------------------------------------------
  Node                Demand      Head  Pressure   Quality
  ID                     CMD         m         m          
  ----------------------------------------------------------------------
  1                        0     301.7      86.7      0.00
  2                        0     321.1      61.1      0.00
  3                        0     381.6      71.6      0.00
  4                        0     412.3      42.3      0.00
  7                      280     404.9       4.9      0.00
  5                        0     405.0       5.0      0.00
  6                        0     405.0       5.0      0.00
  接水點1                     0     235.0       0.0      0.00 Reservoir
  配水池1                  -467     265.0       5.0      0.00 Tank
  配水池2                    40     315.0       5.0      0.00 Tank
  配水池3                   -41     375.0       5.0      0.00 Tank
  配水池4                   187     405.0       5.0      0.00 Tank
  
  Link Results at 10:00 Hrs:
  ----------------------------------------------------------------------
  Link                  Flow  VelocityUnit Headloss    Status
  ID                     CMD       m/s      m/km
  ----------------------------------------------------------------------
  1                        0      0.00      0.00    Closed
  2                      467      0.69      8.32      Open
  3                      427      0.63      7.04      Open
  4                      467      0.69      8.32      Open
  5                      280      0.41      3.22      Open
  6                      467      0.69      8.33      Open
  7                      280      0.41      3.22      Open
  抽水機1                     0      0.00    -66.67      Open Pump
  抽水機2                   467      0.00    -56.05      Open Pump
  抽水機3                   427      0.00    -66.59      Open Pump
  抽水機4                   467      0.00    -37.32      Open Pump
  
  Node Results at 11:00 Hrs:
  ----------------------------------------------------------------------
  Node                Demand      Head  Pressure   Quality
  ID                     CMD         m         m          
  ----------------------------------------------------------------------
  1                        0     268.2      53.2      0.00
  2                        0     321.1      61.1      0.00
  3                        0     381.6      71.6      0.00
  4                        0     455.0      85.0      0.00
  7                      392     404.8       4.8      0.00
  5                        0     455.0      55.0      0.00
  6                        0     405.0       5.0      0.00
  接水點1                  -453     235.0       0.0      0.00 Reservoir
  配水池1                   -14     265.0       5.0      0.00 Tank
  配水池2                    40     315.0       5.0      0.00 Tank
  配水池3                   427     375.0       5.0      0.00 Tank
  配水池4                  -392     405.0       5.0      0.00 Tank
  
  Link Results at 11:00 Hrs:
  ----------------------------------------------------------------------
  Link                  Flow  VelocityUnit Headloss    Status
  ID                     CMD       m/s      m/km
  ----------------------------------------------------------------------
  1                      453      0.67      7.87      Open
  2                      467      0.69      8.31      Open
  3                      427      0.63      7.04      Open
  4                        0      0.00      0.00      Open
  5                      392      0.58      6.01      Open
  6                        0      0.00      0.00    Closed
  7                      392      0.58      6.01      Open
  抽水機1                   453      0.00    -33.19      Open Pump
  抽水機2                   467      0.00    -56.05      Open Pump
  抽水機3                   427      0.00    -66.59      Open Pump
  抽水機4                     0      0.00    -80.00      Open Pump
  
  Node Results at 12:00 Hrs:
  ----------------------------------------------------------------------
  Node                Demand      Head  Pressure   Quality
  ID                     CMD         m         m          
  ----------------------------------------------------------------------
  1                        0     268.2      53.2      0.00
  2                        0     321.0      61.0      0.00
  3                        0     381.5      71.5      0.00
  4                        0     412.3      42.3      0.00
  7                      336     404.9       4.9      0.00
  5                        0     405.0       5.0      0.00
  6                        0     405.0       5.0      0.00
  接水點1                  -454     235.0       0.0      0.00 Reservoir
  配水池1                   -13     265.0       5.0      0.00 Tank
  配水池2                    40     315.0       5.0      0.00 Tank
  配水池3                   -40     374.9       4.9      0.00 Tank
  配水池4                   131     405.0       5.0      0.00 Tank
  
  Link Results at 12:00 Hrs:
  ----------------------------------------------------------------------
  Link                  Flow  VelocityUnit Headloss    Status
  ID                     CMD       m/s      m/km
  ----------------------------------------------------------------------
  1                      454      0.67      7.88      Open
  2                      467      0.69      8.31      Open
  3                      427      0.63      7.05      Open
  4                      467      0.69      8.31      Open
  5                      336      0.50      4.52      Open
  6                      467      0.69      8.30      Open
  7                      336      0.50      4.52      Open
  抽水機1                   454      0.00    -33.16      Open Pump
  抽水機2                   467      0.00    -56.07      Open Pump
  抽水機3                   427      0.00    -66.50      Open Pump
  抽水機4                   467      0.00    -37.41      Open Pump
  
  Node Results at 13:00 Hrs:
  ----------------------------------------------------------------------
  Node                Demand      Head  Pressure   Quality
  ID                     CMD         m         m          
  ----------------------------------------------------------------------
  1                        0     268.1      53.1      0.00
  2                        0     321.0      61.0      0.00
  3                        0     381.5      71.5      0.00
  4                        0     412.3      42.3      0.00
  7                      224     404.9       4.9      0.00
  5                        0     405.0       5.0      0.00
  6                        0     405.0       5.0      0.00
  接水點1                  -454     235.0       0.0      0.00 Reservoir
  配水池1                   -13     264.9       4.9      0.00 Tank
  配水池2                    40     315.0       5.0      0.00 Tank
  配水池3                   -40     374.9       4.9      0.00 Tank
  配水池4                   243     405.0       5.0      0.00 Tank
  
  Link Results at 13:00 Hrs:
  ----------------------------------------------------------------------
  Link                  Flow  VelocityUnit Headloss    Status
  ID                     CMD       m/s      m/km
  ----------------------------------------------------------------------
  1                      454      0.67      7.89      Open
  2                      467      0.69      8.30      Open
  3                      427      0.63      7.04      Open
  4                      467      0.69      8.31      Open
  5                      224      0.33      2.13      Open
  6                      467      0.69      8.32      Open
  7                      224      0.33      2.13      Open
  抽水機1                   454      0.00    -33.09      Open Pump
  抽水機2                   467      0.00    -56.15      Open Pump
  抽水機3                   427      0.00    -66.54      Open Pump
  抽水機4                   467      0.00    -37.37      Open Pump
  
  Node Results at 14:00 Hrs:
  ----------------------------------------------------------------------
  Node                Demand      Head  Pressure   Quality
  ID                     CMD         m         m          
  ----------------------------------------------------------------------
  1                        0     268.2      53.2      0.00
  2                        0     321.1      61.1      0.00
  3                        0     381.6      71.6      0.00
  4                        0     455.0      85.0      0.00
  7                      224     404.9       4.9      0.00
  5                        0     455.0      55.0      0.00
  6                        0     405.0       5.0      0.00
  接水點1                  -453     235.0       0.0      0.00 Reservoir
  配水池1                   -14     265.0       5.0      0.00 Tank
  配水池2                    40     315.0       5.0      0.00 Tank
  配水池3                   427     375.0       5.0      0.00 Tank
  配水池4                  -224     405.0       5.0      0.00 Tank
  
  Link Results at 14:00 Hrs:
  ----------------------------------------------------------------------
  Link                  Flow  VelocityUnit Headloss    Status
  ID                     CMD       m/s      m/km
  ----------------------------------------------------------------------
  1                      453      0.67      7.87      Open
  2                      467      0.69      8.31      Open
  3                      427      0.63      7.04      Open
  4                        0      0.00      0.00      Open
  5                      224      0.33      2.13      Open
  6                        0      0.00      0.00    Closed
  7                      224      0.33      2.14      Open
  抽水機1                   453      0.00    -33.19      Open Pump
  抽水機2                   467      0.00    -56.05      Open Pump
  抽水機3                   427      0.00    -66.59      Open Pump
  抽水機4                     0      0.00    -80.00      Open Pump
  
  Node Results at 15:00 Hrs:
  ----------------------------------------------------------------------
  Node                Demand      Head  Pressure   Quality
  ID                     CMD         m         m          
  ----------------------------------------------------------------------
  1                        0     301.7      86.7      0.00
  2                        0     385.0     125.0      0.00
  3                        0     381.6      71.6      0.00
  4                        0     455.0      85.0      0.00
  7                      224     404.9       4.9      0.00
  5                        0     455.0      55.0      0.00
  6                        0     405.0       5.0      0.00
  接水點1                     0     235.0       0.0      0.00 Reservoir
  配水池1                     0     265.0       5.0      0.00 Tank
  配水池2                  -427     315.0       5.0      0.00 Tank
  配水池3                   427     375.0       5.0      0.00 Tank
  配水池4                  -224     405.0       5.0      0.00 Tank
  
  Link Results at 15:00 Hrs:
  ----------------------------------------------------------------------
  Link                  Flow  VelocityUnit Headloss    Status
  ID                     CMD       m/s      m/km
  ----------------------------------------------------------------------
  1                        0      0.00      0.00    Closed
  2                        0      0.00      0.00    Closed
  3                      427      0.63      7.04      Open
  4                        0      0.00      0.00      Open
  5                      224      0.33      2.13      Open
  6                        0      0.00      0.00    Closed
  7                      224      0.33      2.14      Open
  抽水機1                     0      0.00    -66.67      Open Pump
  抽水機2                     0      0.00   -120.00      Open Pump
  抽水機3                   427      0.00    -66.59      Open Pump
  抽水機4                     0      0.00    -80.00      Open Pump
  
  Node Results at 16:00 Hrs:
  ----------------------------------------------------------------------
  Node                Demand      Head  Pressure   Quality
  ID                     CMD         m         m          
  ----------------------------------------------------------------------
  1                        0     301.7      86.7      0.00
  2                        0     321.1      61.1      0.00
  3                        0     435.0     125.0      0.00
  4                        0     412.3      42.3      0.00
  7                      252     404.9       4.9      0.00
  5                        0     405.0       5.0      0.00
  6                        0     405.0       5.0      0.00
  接水點1                     0     235.0       0.0      0.00 Reservoir
  配水池1                  -467     265.0       5.0      0.00 Tank
  配水池2                   467     315.0       5.0      0.00 Tank
  配水池3                  -467     375.0       5.0      0.00 Tank
  配水池4                   215     405.0       5.0      0.00 Tank
  
  Link Results at 16:00 Hrs:
  ----------------------------------------------------------------------
  Link                  Flow  VelocityUnit Headloss    Status
  ID                     CMD       m/s      m/km
  ----------------------------------------------------------------------
  1                        0      0.00      0.00    Closed
  2                      467      0.69      8.31      Open
  3                        0      0.00      0.00    Closed
  4                      467      0.69      8.32      Open
  5                      252      0.37      2.65      Open
  6                      467      0.69      8.33      Open
  7                      252      0.37      2.65      Open
  抽水機1                     0      0.00    -66.67      Open Pump
  抽水機2                   467      0.00    -56.05      Open Pump
  抽水機3                     0      0.00   -120.00      Open Pump
  抽水機4                   467      0.00    -37.32      Open Pump
  
  Node Results at 17:00 Hrs:
  ----------------------------------------------------------------------
  Node                Demand      Head  Pressure   Quality
  ID                     CMD         m         m          
  ----------------------------------------------------------------------
  1                        0     268.2      53.2      0.00
  2                        0     321.1      61.1      0.00
  3                        0     435.0     125.0      0.00
  4                        0     412.3      42.3      0.00
  7                      392     404.8       4.8      0.00
  5                        0     405.0       5.0      0.00
  6                        0     405.0       5.0      0.00
  接水點1                  -453     235.0       0.0      0.00 Reservoir
  配水池1                   -14     265.0       5.0      0.00 Tank
  配水池2                   467     315.0       5.0      0.00 Tank
  配水池3                  -467     375.0       5.0      0.00 Tank
  配水池4                    75     405.0       5.0      0.00 Tank
  
  Link Results at 17:00 Hrs:
  ----------------------------------------------------------------------
  Link                  Flow  VelocityUnit Headloss    Status
  ID                     CMD       m/s      m/km
  ----------------------------------------------------------------------
  1                      453      0.67      7.87      Open
  2                      467      0.69      8.31      Open
  3                        0      0.00      0.00    Closed
  4                      467      0.69      8.32      Open
  5                      392      0.58      6.01      Open
  6                      467      0.69      8.32      Open
  7                      392      0.58      6.01      Open
  抽水機1                   453      0.00    -33.19      Open Pump
  抽水機2                   467      0.00    -56.05      Open Pump
  抽水機3                     0      0.00   -120.00      Open Pump
  抽水機4                   467      0.00    -37.32      Open Pump
  
  Node Results at 18:00 Hrs:
  ----------------------------------------------------------------------
  Node                Demand      Head  Pressure   Quality
  ID                     CMD         m         m          
  ----------------------------------------------------------------------
  1                        0     268.2      53.2      0.00
  2                        0     321.0      61.0      0.00
  3                        0     381.5      71.5      0.00
  4                        0     412.3      42.3      0.00
  7                      420     404.8       4.8      0.00
  5                        0     405.0       5.0      0.00
  6                        0     405.0       5.0      0.00
  接水點1                  -454     235.0       0.0      0.00 Reservoir
  配水池1                   -13     265.0       5.0      0.00 Tank
  配水池2                    40     315.0       5.0      0.00 Tank
  配水池3                   -40     374.9       4.9      0.00 Tank
  配水池4                    47     405.0       5.0      0.00 Tank
  
  Link Results at 18:00 Hrs:
  ----------------------------------------------------------------------
  Link                  Flow  VelocityUnit Headloss    Status
  ID                     CMD       m/s      m/km
  ----------------------------------------------------------------------
  1                      454      0.67      7.87      Open
  2                      467      0.69      8.31      Open
  3                      427      0.63      7.05      Open
  4                      467      0.69      8.31      Open
  5                      420      0.62      6.83      Open
  6                      467      0.69      8.31      Open
  7                      420      0.62      6.82      Open
  抽水機1                   454      0.00    -33.17      Open Pump
  抽水機2                   467      0.00    -56.07      Open Pump
  抽水機3                   427      0.00    -66.51      Open Pump
  抽水機4                   467      0.00    -37.40      Open Pump
  
  Node Results at 19:00 Hrs:
  ----------------------------------------------------------------------
  Node                Demand      Head  Pressure   Quality
  ID                     CMD         m         m          
  ----------------------------------------------------------------------
  1                        0     268.1      53.1      0.00
  2                        0     320.9      60.9      0.00
  3                        0     381.5      71.5      0.00
  4                        0     412.3      42.3      0.00
  7                      504     404.7       4.7      0.00
  5                        0     405.0       5.0      0.00
  6                        0     404.9       4.9      0.00
  接水點1                  -454     235.0       0.0      0.00 Reservoir
  配水池1                   -13     264.9       4.9      0.00 Tank
  配水池2                    41     314.8       4.8      0.00 Tank
  配水池3                   -41     375.0       5.0      0.00 Tank
  配水池4                   -37     405.0       5.0      0.00 Tank
  
  Link Results at 19:00 Hrs:
  ----------------------------------------------------------------------
  Link                  Flow  VelocityUnit Headloss    Status
  ID                     CMD       m/s      m/km
  ----------------------------------------------------------------------
  1                      454      0.67      7.89      Open
  2                      467      0.69      8.32      Open
  3                      426      0.63      7.02      Open
  4                      467      0.69      8.32      Open
  5                      504      0.74      9.57      Open
  6                      467      0.69      8.32      Open
  7                      504      0.74      9.57      Open
  抽水機1                   454      0.00    -33.08      Open Pump
  抽水機2                   467      0.00    -55.98      Open Pump
  抽水機3                   426      0.00    -66.74      Open Pump
  抽水機4                   467      0.00    -37.33      Open Pump
  
  Node Results at 20:00 Hrs:
  ----------------------------------------------------------------------
  Node                Demand      Head  Pressure   Quality
  ID                     CMD         m         m          
  ----------------------------------------------------------------------
  1                        0     268.1      53.1      0.00
  2                        0     320.9      60.9      0.00
  3                        0     381.5      71.5      0.00
  4                        0     412.3      42.3      0.00
  7                      392     404.8       4.8      0.00
  5                        0     405.0       5.0      0.00
  6                        0     404.9       4.9      0.00
  接水點1                  -454     235.0       0.0      0.00 Reservoir
  配水池1                   -13     264.9       4.9      0.00 Tank
  配水池2                    40     314.9       4.9      0.00 Tank
  配水池3                   -40     374.9       4.9      0.00 Tank
  配水池4                    75     405.0       5.0      0.00 Tank
  
  Link Results at 20:00 Hrs:
  ----------------------------------------------------------------------
  Link                  Flow  VelocityUnit Headloss    Status
  ID                     CMD       m/s      m/km
  ----------------------------------------------------------------------
  1                      454      0.67      7.90      Open
  2                      467      0.69      8.31      Open
  3                      427      0.63      7.04      Open
  4                      467      0.69      8.31      Open
  5                      392      0.58      6.01      Open
  6                      467      0.69      8.30      Open
  7                      392      0.58      6.01      Open
  抽水機1                   454      0.00    -33.06      Open Pump
  抽水機2                   467      0.00    -56.07      Open Pump
  抽水機3                   427      0.00    -66.60      Open Pump
  抽水機4                   467      0.00    -37.39      Open Pump
  
  Node Results at 21:00 Hrs:
  ----------------------------------------------------------------------
  Node                Demand      Head  Pressure   Quality
  ID                     CMD         m         m          
  ----------------------------------------------------------------------
  1                        0     268.0      53.0      0.00
  2                        0     321.0      61.0      0.00
  3                        0     381.4      71.4      0.00
  4                        0     412.3      42.3      0.00
  7                      308     404.9       4.9      0.00
  5                        0     405.0       5.0      0.00
  6                        0     405.0       5.0      0.00
  接水點1                  -455     235.0       0.0      0.00 Reservoir
  配水池1                   -12     264.8       4.8      0.00 Tank
  配水池2                    39     315.0       5.0      0.00 Tank
  配水池3                   -39     374.8       4.8      0.00 Tank
  配水池4                   159     405.0       5.0      0.00 Tank
  
  Link Results at 21:00 Hrs:
  ----------------------------------------------------------------------
  Link                  Flow  VelocityUnit Headloss    Status
  ID                     CMD       m/s      m/km
  ----------------------------------------------------------------------
  1                      455      0.67      7.90      Open
  2                      467      0.69      8.30      Open
  3                      427      0.63      7.05      Open
  4                      467      0.69      8.30      Open
  5                      308      0.45      3.84      Open
  6                      467      0.69      8.30      Open
  7                      308      0.45      3.84      Open
  抽水機1                   455      0.00    -33.04      Open Pump
  抽水機2                   467      0.00    -56.16      Open Pump
  抽水機3                   427      0.00    -66.48      Open Pump
  抽水機4                   467      0.00    -37.46      Open Pump
  
  Node Results at 22:00 Hrs:
  ----------------------------------------------------------------------
  Node                Demand      Head  Pressure   Quality
  ID                     CMD         m         m          
  ----------------------------------------------------------------------
  1                        0     268.0      53.0      0.00
  2                        0     321.0      61.0      0.00
  3                        0     381.6      71.6      0.00
  4                        0     412.3      42.3      0.00
  7                      252     404.9       4.9      0.00
  5                        0     405.0       5.0      0.00
  6                        0     405.0       5.0      0.00
  接水點1                  -454     235.0       0.0      0.00 Reservoir
  配水池1                   -12     264.8       4.8      0.00 Tank
  配水池2                    40     315.0       5.0      0.00 Tank
  配水池3                   -40     375.0       5.0      0.00 Tank
  配水池4                   215     405.0       5.0      0.00 Tank
  
  Link Results at 22:00 Hrs:
  ----------------------------------------------------------------------
  Link                  Flow  VelocityUnit Headloss    Status
  ID                     CMD       m/s      m/km
  ----------------------------------------------------------------------
  1                      454      0.67      7.90      Open
  2                      467      0.69      8.30      Open
  3                      427      0.63      7.04      Open
  4                      467      0.69      8.32      Open
  5                      252      0.37      2.65      Open
  6                      467      0.69      8.32      Open
  7                      252      0.37      2.65      Open
  抽水機1                   454      0.00    -33.05      Open Pump
  抽水機2                   467      0.00    -56.19      Open Pump
  抽水機3                   427      0.00    -66.56      Open Pump
  抽水機4                   467      0.00    -37.34      Open Pump
  
  Node Results at 23:00 Hrs:
  ----------------------------------------------------------------------
  Node                Demand      Head  Pressure   Quality
  ID                     CMD         m         m          
  ----------------------------------------------------------------------
  1                        0     268.2      53.2      0.00
  2                        0     321.1      61.1      0.00
  3                        0     381.6      71.6      0.00
  4                        0     455.0      85.0      0.00
  7                      168     405.0       5.0      0.00
  5                        0     455.0      55.0      0.00
  6                        0     405.0       5.0      0.00
  接水點1                  -453     235.0       0.0      0.00 Reservoir
  配水池1                   -14     265.0       5.0      0.00 Tank
  配水池2                    40     315.0       5.0      0.00 Tank
  配水池3                   427     375.0       5.0      0.00 Tank
  配水池4                  -168     405.0       5.0      0.00 Tank
  
  Link Results at 23:00 Hrs:
  ----------------------------------------------------------------------
  Link                  Flow  VelocityUnit Headloss    Status
  ID                     CMD       m/s      m/km
  ----------------------------------------------------------------------
  1                      453      0.67      7.87      Open
  2                      467      0.69      8.31      Open
  3                      427      0.63      7.04      Open
  4                        0      0.00      0.00      Open
  5                      168      0.25      1.25      Open
  6                        0      0.00      0.00    Closed
  7                      168      0.25      1.25      Open
  抽水機1                   453      0.00    -33.19      Open Pump
  抽水機2                   467      0.00    -56.05      Open Pump
  抽水機3                   427      0.00    -66.59      Open Pump
  抽水機4                     0      0.00    -80.00      Open Pump

[END]