  Page 1                                           2024/12/7 ¤W¤È 12:35:17
  **********************************************************************
  *                             E P A N E T                            *
  *                     Hydraulic and Water Quality                    *
  *                     Analysis for Pipe Networks                     *
  *                           Version 2.2                              *
  **********************************************************************
  
  Input File: MultiPattern-simple.inp
  
  
  
  Link - Node Table:
  ----------------------------------------------------------------------
  Link           Start          End                Length  Diameter
  ID             Node           Node                    m        mm
  ----------------------------------------------------------------------
  2              1              2                    1000       100
  3              2              3                    1000       100
  4              3              5                    1000       100
  7              2              4                    1000       100
  1              6              1                    #N/A      #N/A Pump
  6              3              7                    #N/A       100 Valve
  
  Energy Usage:
  ----------------------------------------------------------------------
                    Usage   Avg.     Kw-hr      Avg.      Peak      Cost
  Pump             Factor Effic.     /m3        Kw        Kw      /day
  ----------------------------------------------------------------------
  1                100.00  75.00      0.22      0.54      0.54      0.00
  ----------------------------------------------------------------------
                                                Demand Charge:      0.00
                                                Total Cost:         0.00
  
  Node Results at 0:00 Hrs:
  ----------------------------------------------------------------------
  Node                Demand      Head  Pressure   Quality
  ID                     CMD         m         m          
  ----------------------------------------------------------------------
  1                     0.00     90.31     60.31      0.00
  2                    10.00     90.09     30.09      0.00
  3                    10.00     90.03     60.03      0.00
  4                    20.00     90.06     30.06      0.00
  7                     0.00     14.00      4.00      0.00
  6                   -59.54     30.00      0.00      0.00 Reservoir
  5                    19.54     90.00     10.00      0.00 Tank
  


  Page 2                                                                
  Link Results at 0:00 Hrs:
  ----------------------------------------------------------------------
  Link                  Flow  VelocityUnit Headloss    Status
  ID                     CMD       m/s      m/km
  ----------------------------------------------------------------------
  2                    59.54      0.09      0.22      Open
  3                    29.54      0.04      0.06      Open
  4                    19.54      0.03      0.03      Open
  7                    20.00      0.03      0.03      Open
  1                    59.54      0.00    -60.31      Open Pump
  6                     0.00      0.00     76.03    Active Valve
  
  Node Results at 1:00 Hrs:
  ----------------------------------------------------------------------
  Node                Demand      Head  Pressure   Quality
  ID                     CMD         m         m          
  ----------------------------------------------------------------------
  1                     0.00     90.45     60.45      0.00
  2                     5.00     90.23     30.23      0.00
  3                     5.00     90.10     60.10      0.00
  4                    10.00     90.22     30.22      0.00
  7                     0.00     14.00      4.00      0.00
  6                   -59.33     30.00      0.00      0.00 Reservoir
  5                    39.33     90.00     10.00      0.00 Tank
  
  Link Results at 1:00 Hrs:
  ----------------------------------------------------------------------
  Link                  Flow  VelocityUnit Headloss    Status
  ID                     CMD       m/s      m/km
  ----------------------------------------------------------------------
  2                    59.33      0.09      0.22      Open
  3                    44.33      0.07      0.13      Open
  4                    39.33      0.06      0.10      Open
  7                    10.00      0.01      0.01      Open
  1                    59.33      0.00    -60.45      Open Pump
  6                     0.00      0.00     76.10    Active Valve
  
  Node Results at 2:00 Hrs:
  ----------------------------------------------------------------------
  Node                Demand      Head  Pressure   Quality
  ID                     CMD         m         m          
  ----------------------------------------------------------------------
  1                     0.00     90.24     60.24      0.00
  2                    15.00     90.02     30.02      0.00
  3                    15.00     90.00     60.00      0.00
  4                    30.00     89.96     29.96      0.00
  7                     0.00     14.00      4.00      0.00
  6                   -59.64     30.00      0.00      0.00 Reservoir
  5                    -0.36     90.00     10.00      0.00 Tank
  


  Page 3                                                                
  Link Results at 2:00 Hrs:
  ----------------------------------------------------------------------
  Link                  Flow  VelocityUnit Headloss    Status
  ID                     CMD       m/s      m/km
  ----------------------------------------------------------------------
  2                    59.64      0.09      0.22      Open
  3                    14.64      0.02      0.02      Open
  4                    -0.36      0.00      0.00      Open
  7                    30.00      0.04      0.06      Open
  1                    59.64      0.00    -60.24      Open Pump
  6                     0.00      0.00     76.00    Active Valve
  
