  Page 1                                           2024/12/7 ¤U¤È 08:30:35
  **********************************************************************
  *                             E P A N E T                            *
  *                     Hydraulic and Water Quality                    *
  *                     Analysis for Pipe Networks                     *
  *                           Version 2.2                              *
  **********************************************************************
  
  Input File: 1Pattern-simple.inp
  
  
  
  Link - Node Table:
  ----------------------------------------------------------------------
  Link           Start          End                Length  Diameter
  ID             Node           Node                    m        mm
  ----------------------------------------------------------------------
  2              1              2                     268       100
  3              2              3                     314       100
  4              3              5                     513       100
  5              2              4                     357       100
  1              6              1                    #N/A      #N/A Pump
  6              3              7                    #N/A       100 Valve
  
  Energy Usage:
  ----------------------------------------------------------------------
                    Usage   Avg.     Kw-hr      Avg.      Peak      Cost
  Pump             Factor Effic.     /m3        Kw        Kw      /day
  ----------------------------------------------------------------------
  1                100.00  75.00      0.22      0.54      0.54      0.00
  ----------------------------------------------------------------------
                                                Demand Charge:      0.00
                                                Total Cost:         0.00
  
  Node Results at 0:00 Hrs:
  ----------------------------------------------------------------------
  Node                Demand      Head  Pressure   Quality
  ID                     CMD         m         m          
  ----------------------------------------------------------------------
  1                     0.00     90.14     60.14      0.00
  2                     6.00     90.08     30.08      0.00
  3                     6.00     90.04     60.04      0.00
  4                    12.00     90.08     30.08      0.00
  7                     0.00     14.00      4.00      0.00
  6                   -59.79     30.00      0.00      0.00 Reservoir
  5                    35.79     90.00     10.00      0.00 Tank
  


  Page 2                                                                
  Link Results at 0:00 Hrs:
  ----------------------------------------------------------------------
  Link                  Flow  VelocityUnit Headloss    Status
  ID                     CMD       m/s      m/km
  ----------------------------------------------------------------------
  2                    59.79      0.09      0.22      Open
  3                    41.79      0.06      0.11      Open
  4                    35.79      0.05      0.09      Open
  5                    12.00      0.02      0.01      Open
  1                    59.79      0.00    -60.14      Open Pump
  6                     0.00      0.00     76.04    Active Valve
  
  Node Results at 1:00 Hrs:
  ----------------------------------------------------------------------
  Node                Demand      Head  Pressure   Quality
  ID                     CMD         m         m          
  ----------------------------------------------------------------------
  1                     0.00     90.09     60.09      0.00
  2                    10.00     90.03     30.03      0.00
  3                    10.00     90.02     60.02      0.00
  4                    20.00     90.02     30.02      0.00
  7                     0.00     14.00      4.00      0.00
  6                   -59.86     30.00      0.00      0.00 Reservoir
  5                    19.86     90.00     10.00      0.00 Tank
  
  Link Results at 1:00 Hrs:
  ----------------------------------------------------------------------
  Link                  Flow  VelocityUnit Headloss    Status
  ID                     CMD       m/s      m/km
  ----------------------------------------------------------------------
  2                    59.86      0.09      0.22      Open
  3                    29.86      0.04      0.06      Open
  4                    19.86      0.03      0.03      Open
  5                    20.00      0.03      0.03      Open
  1                    59.86      0.00    -60.09      Open Pump
  6                     0.00      0.00     76.02    Active Valve
  
  Node Results at 2:00 Hrs:
  ----------------------------------------------------------------------
  Node                Demand      Head  Pressure   Quality
  ID                     CMD         m         m          
  ----------------------------------------------------------------------
  1                     0.00     90.07     60.07      0.00
  2                    15.00     90.01     30.01      0.00
  3                    15.00     90.00     60.00      0.00
  4                    30.00     89.98     29.98      0.00
  7                     0.00     14.00      4.00      0.00
  6                   -59.90     30.00      0.00      0.00 Reservoir
  5                    -0.10     90.00     10.00      0.00 Tank
  


  Page 3                                                                
  Link Results at 2:00 Hrs:
  ----------------------------------------------------------------------
  Link                  Flow  VelocityUnit Headloss    Status
  ID                     CMD       m/s      m/km
  ----------------------------------------------------------------------
  2                    59.90      0.09      0.22      Open
  3                    14.90      0.02      0.02      Open
  4                    -0.10      0.00      0.00      Open
  5                    30.00      0.04      0.06      Open
  1                    59.90      0.00    -60.07      Open Pump
  6                     0.00      0.00     76.00    Active Valve
  
