  Page 1                                           2025/3/23 上午 10:46:16
  **********************************************************************
  *                             E P A N E T                            *
  *                     Hydraulic and Water Quality                    *
  *                     Analysis for Pipe Networks                     *
  *                           Version 2.2                              *
  **********************************************************************
  
  Input File: 航空城區內最大時水力分析.net
  
  
  
  Link - Node Table:
  ----------------------------------------------------------------------
  Link           Start          End                Length  Diameter
  ID             Node           Node                    m        mm
  ----------------------------------------------------------------------
  1              1              2                  393.46       800
  2              2              4                  283.40       800
  3              4              5                  170.32       800
  4              5              3                  172.38       800
  5              6              7                  137.17       800
  6              7              8                    8.55       800
  7              8              9                  247.87       800
  8              10             11                   5.52       800
  9              9              10                 281.61       800
  10             11             12                 653.67       800
  11             12             13                  39.19       300
  13             14             15                 832.52       800
  14             15             16                  49.03       200
  15             15             17                 806.82       800
  16             17             18                 577.13       800
  17             18             19                 281.53       800
  18             19             20                 562.88       800
  19             20             21                 575.49       600
  20             10             22                 430.88       800
  21             22             23                 260.02       800
  22             23             24                1296.20       800
  23             24             25                 345.24       800
  24             25             26                   6.73       800
  25             26             27                 820.71       800
  28             29             30                 148.94       600
  30             31             32                  86.21       400
  32             33             34                 401.03       800
  33             34             35                 563.10       800
  34             35             36                 627.89       800
  35             36             37                  69.98       800
  37             39             38                 134.10       600
  38             33             40                 293.52       600
  39             41             1                   48.48       800
  40             3              42                  88.52       800
  42             11             44                 351.18       800
  43             44             43                1019.54       800
  44             8              45                 326.89       300


  Page 2                                                                
  Link - Node Table: (continued)
  ----------------------------------------------------------------------
  Link           Start          End                Length  Diameter
  ID             Node           Node                    m        mm
  ----------------------------------------------------------------------
  45             45             46                 351.66       300
  46             45             47                 239.26       300
  47             49             48                 299.28       200
  48             47             50                   9.81       200
  49             48             50                 222.32       200
  50             50             51                 298.89       200
  51             49             52                  69.91       200
  52             52             53                   7.92       200
  53             53             54                  56.03       200
  54             54             55                   7.92       200
  55             58             59                   9.49       200
  56             59             50                  74.38       200
  57             56             57                   8.67       200
  58             55             51                  70.33       200
  59             54             58                 300.62       100
  60             55             59                 300.73       100
  61             52             56                 301.09       100
  62             53             57                 301.93       100
  63             47             65                  13.32       200
  65             68             79                 182.29       200
  66             79             78                   7.14       200
  67             78             65                 106.53       200
  68             65             64                  76.02       200
  69             64             74                 103.81       100
  70             74             78                  75.38       100
  71             79             73                  76.54       100
  72             71             63                 103.52       100
  73             63             67                  52.67       200
  74             67             66                  11.84       200
  75             66             60                  72.31       200
  76             67             75                  99.57       100
  77             67             66                  11.84       200
  78             66             80                 197.11       100
  79             67             75                  99.57       200
  80             76             81                  98.02       100
  81             81             69                  84.23       100
  82             70             80                  74.91       200
  83             72             77                 195.63       100
  84             72             76                  54.97       100
  85             73             62                 194.94       100
  86             62             68                  77.38       200
  87             62             77                   9.23       200
  88             77             61                 136.31       200
  89             61             69                 112.51       200
  90             69             70                   9.60       200
  91             70             60                 201.06       200
  92             67             66                  11.84       200


  Page 3                                                                
  Link - Node Table: (continued)
  ----------------------------------------------------------------------
  Link           Start          End                Length  Diameter
  ID             Node           Node                    m        mm
  ----------------------------------------------------------------------
  93             71             75                  54.91       100
  94             48             82                  24.37       200
  95             83             85                1035.83       300
  96             85             87                 790.11       300
  98             86             88                 810.14       200
  100            13             83                  19.35       300
  101            13             84                  17.36       300
  103            91             90                 239.92       400
  104            16             93                 419.38       300
  105            93             98                 288.12       200
  106            98             97                 424.30       200
  107            97             16                 293.80       200
  108            107            105                421.31       400
  109            109            110                176.15       200
  110            108            109                858.76       200
  111            92             112                348.88       200
  112            112            111                 16.59       300
  113            111            113                134.16       300
  114            111            110                331.67       200
  115            100            112                499.17       300
  116            99             92                 293.24       200
  117            99             100                396.13       200
  119            99             106                 17.44       200
  120            108            106                 23.71       200
  122            102            107                446.11       400
  123            94             103                 26.29       200
  124            94             102                 21.65       200
  125            96             114                 44.03       200
  126            102            115                828.24       400
  127            114            116                810.44       200
  129            117            118                 60.90       400
  130            119            116                 24.64       200
  131            119            115                 19.22       200
  132            119            101                 19.41       200
  133            115            117                 83.80       400
  134            121            101                283.75       200
  135            101            119                 19.41       200
  136            101            96                 807.85       200
  137            121            95                 809.27       200
  138            95             96                 288.60       200
  139            103            104                422.85       200
  140            98             104                 37.30       200
  141            106            107                 15.06       200
  143            130            131                265.21       200
  144            131            128                 59.93       200
  145            128            127                 11.93       200
  146            130            126                162.01       200


  Page 4                                                                
  Link - Node Table: (continued)
  ----------------------------------------------------------------------
  Link           Start          End                Length  Diameter
  ID             Node           Node                    m        mm
  ----------------------------------------------------------------------
  147            126            125                 14.59       200
  148            125            127                226.36       100
  149            128            126                228.52       100
  150            125            122                 96.89       200
  152            122            132                236.78       200
  153            128            127                 11.93       200
  154            127            132                 98.56       200
  155            129            130                 18.94       200
  156            151            123                237.08       200
  157            123            133                 90.46       200
  158            133            134                 16.59       200
  159            134            135                 85.28       200
  160            135            136                 16.74       200
  161            136            146                 85.36       200
  163            124            146                  9.48       200
  164            146            145                238.67       200
  165            145            144                 15.44       200
  166            144            143                154.22       200
  167            143            142                 85.33       200
  168            142            141                 17.51       200
  170            141            140                158.85       100
  171            142            139                159.89       100
  172            138            145                 80.78       100
  173            138            136                238.81       100
  174            135            137                235.92       100
  175            148            133                237.50       100
  177            151            148                 96.74       100
  178            148            147                 17.65       200
  179            147            137                 84.47       100
  180            137            138                 19.74       200
  181            153            152                163.91       200
  182            152            151                 12.63       200
  183            149            154                163.34       100
  184            150            155                163.24       100
  185            152            149                 96.10       100
  186            149            150                 16.73       200
  187            150            140                 87.45       100
  188            140            139                 18.17       200
  189            139            144                 82.86       100
  190            153            154                 97.92       200
  191            154            155                 15.18       200
  192            155            141                 86.45       200
  193            124            129                 29.78       300
  195            147            134                235.20       100
  199            157            159                 35.57       300
  200            166            165                222.41       200
  201            165            164                304.56       200


  Page 5                                                                
  Link - Node Table: (continued)
  ----------------------------------------------------------------------
  Link           Start          End                Length  Diameter
  ID             Node           Node                    m        mm
  ----------------------------------------------------------------------
  202            164            163                 34.44       200
  203            163            162                 15.86       200
  204            162            161                 42.65       200
  205            161            160                 16.84       200
  208            171            170                 92.49       200
  209            170            169                 19.20       200
  210            169            168                 37.16       200
  211            168            167                 13.44       200
  212            167            165                 38.40       200
  213            167            163                307.51       100
  214            168            162                306.87       100
  215            169            161                306.86       100
  216            170            160                307.10       100
  217            172            171                301.00       200
  218            160            172                 95.68       200
  219            172            158                 10.36       200
  220            166            173                699.73       300
  221            173            86                 341.41       200
  222            87             174                183.49       300
  223            175            176                398.33       300
  224            176            89                 501.45       300
  151            89             174                170.55       300
  162            185            186                182.37       100
  169            186            188                  8.29       100
  176            188            189                 56.31       100
  206            186            187                 56.66       100
  207            190            191                 89.32       100
  230            191            188                183.79       100
  231            190            189                270.97       100
  232            192            193                233.07       200
  233            193            190                  4.80       200
  234            195            194                 82.97       100
  235            194            199                217.76       100
  236            199            198                  8.36       100
  237            198            200                 86.86       100
  238            200            201                 84.13       100
  239            201            197                 78.20       100
  240            197            196                 10.52       100
  241            196            195                217.28       100
  242            199            196                 81.82       100
  243            198            197                 82.88       100
  244            192            194                  6.62       200
  245            202            192                 95.69       300
  246            202            203                  6.35       200
  247            205            203                 81.17       100
  248            206            202                 88.82       300
  249            206            204                  6.11       200


  Page 6                                                                
  Link - Node Table: (continued)
  ----------------------------------------------------------------------
  Link           Start          End                Length  Diameter
  ID             Node           Node                    m        mm
  ----------------------------------------------------------------------
  250            207            204                 92.34       100
  251            47             206                118.14       300
  252            208            207                305.62       100
  253            208            209                 46.26       100
  254            209            204                324.21       100
  255            210            211                 90.53       100
  256            211            212                  9.62       100
  257            212            205                224.74       100
  258            210            215                128.39       100
  259            215            213                 77.10       100
  260            213            214                 10.71       100
  261            214            203                216.91       100
  262            212            214                 80.14       100
  263            211            213                 84.66       100
  264            120            217                 32.02       800
  265            177            217                113.15      1000
  266            177            216                 44.38       800
  267            216            178               1193.20       800
  268            178            218                 67.69       600
  269            218            180                441.22       600
  270            180            220                125.75       500
  271            221            219                118.84       400
  272            220            219                  9.77       400
  273            220            222                221.05       500
  274            219            223                253.48       400
  275            222            179                 25.29       500
  276            224            225                542.85       200
  278            225            227                551.55       200
  279            227            228                 30.87       200
  280            228            229                559.85       200
  281            231            232                 25.44       200
  282            232            224                 34.96       200
  283            230            232                 60.34       300
  284            179            230                493.13       500
  286            237            235                574.80       100
  287            235            234                169.62       200
  288            234            233                 30.05       100
  289            233            236                179.07       200
  290            236            235                 31.99       200
  291            231            234                563.67       200
  293            238            243                580.30       200
  294            243            242                 42.15       100
  295            242            240                130.15       100
  296            240            241                 31.75       100
  297            241            243                143.88       100
  298            241            239                563.46       100
  299            237            238                 58.47       200


  Page 7                                                                
  Link - Node Table: (continued)
  ----------------------------------------------------------------------
  Link           Start          End                Length  Diameter
  ID             Node           Node                    m        mm
  ----------------------------------------------------------------------
  300            230            244                240.46       500
  302            244            175                455.32       500
  303            239            246                218.97       200
  304            246            238                205.33       200
  305            246            247                 60.89       200
  306            237            248                 95.45       200
  307            248            231                110.74       200
  308            248            249                 35.67       200
  309            226            250                205.23       200
  310            250            224                206.85       200
  311            250            251                 35.30       200
  312            175            252                341.08       500
  313            252            253                112.34       500
  314            255            254                483.04       300
  315            253            254                472.38       500
  317            223            257                304.37       400
  318            257            258                133.29       400
  319            179            262                 16.79       200
  320            262            261                426.22       200
  321            261            260                 13.06       200
  322            261            259                 60.96       200
  323            260            273                253.08       200
  324            273            272                 13.48       200
  325            272            274                148.60       200
  326            274            275                120.02       200
  327            275            276                 16.59       200
  328            276            277                 77.09       200
  329            277            280                 14.97       200
  330            273            267                119.16       100
  331            272            270                120.19       100
  332            270            275                148.76       100
  333            276            269                147.35       100
  335            268            265                243.30       100
  336            265            266                 12.02       100
  337            266            267                242.52       100
  338            263            279                262.33       100
  340            278            277                141.58       100
  341            280            264                419.05       100
  342            264            263                 11.65       100
  343            267            270                 15.39       100
  344            279            268                 81.19       100
  345            278            269                 83.43       100
  346            278            279                 13.77       100
  347            269            268                 15.50       100
  348            304            296                 42.95       200
  349            296            295                 10.54       200
  350            295            303                 36.94       200


  Page 8                                                                
  Link - Node Table: (continued)
  ----------------------------------------------------------------------
  Link           Start          End                Length  Diameter
  ID             Node           Node                    m        mm
  ----------------------------------------------------------------------
  351            303            302                  9.54       200
  352            302            301                 71.71       200
  353            301            287                138.23       200
  354            284            283                 25.45       100
  355            283            282                150.06       100
  356            282            281                 31.76       100
  357            281            308                 42.64       100
  358            308            309                 51.44       100
  359            284            285                 92.14       100
  360            285            313                 57.00       100
  361            310            313                 77.96       100
  362            313            312                 48.18       100
  363            309            311                123.47       100
  364            312            311                 12.02       100
  365            311            307                 42.07       100
  366            307            306                 43.11       100
  367            307            308                106.11       100
  368            312            286                 61.90       100
  369            285            286                 44.82       100
  370            286            287                 13.62       100
  371            287            305                161.23       100
  372            305            306                  9.98       100
  373            296            297                129.66       100
  374            297            298                 11.49       100
  375            298            295                131.02       100
  376            300            299                  8.50       100
  377            300            303                130.37       100
  378            302            294                 48.50       100
  379            294            292                 48.68       100
  380            292            299                 33.57       100
  381            292            288                 65.40       100
  382            294            291                 66.55       100
  383            314            304                  8.68       200
  384            314            315                  6.23       200
  385            314            218                  9.84       300
  386            316            319                 77.57       100
  387            317            318                 70.59       100
  388            318            320                 40.59       100
  389            320            326                 70.87       100
  390            325            321                 73.87       100
  391            321            327                 39.13       100
  392            327            324                 70.14       100
  393            327            322                 33.15       100
  394            322            323                 55.49       100
  395            319            320                 55.54       100
  396            315            316                 44.30       200
  397            316            317                  7.48       200


  Page 9                                                                
  Link - Node Table: (continued)
  ----------------------------------------------------------------------
  Link           Start          End                Length  Diameter
  ID             Node           Node                    m        mm
  ----------------------------------------------------------------------
  398            317            326                 41.31       200
  399            326            325                  9.48       200
  400            325            324                 36.68       200
  401            324            323                 31.78       200
  402            301            329                 18.77       200
  403            323            328                 17.10       200
  404            328            348                 93.62       200
  405            348            347                 12.48       200
  406            347            346                124.14       200
  407            346            349                 58.65       200
  408            349            344                 83.10       200
  409            344            345                 10.59       200
  410            345            350                 35.66       200
  412            350            340                 92.63       200
  413            351            341                 88.61       200
  414            341            342                 52.02       200
  415            338            352                133.85       200
  416            352            340                  9.00       200
  417            352            343                 63.18       200
  418            333            337                 64.37       100
  419            333            336                 11.74       100
  421            339            340                 41.67       100
  423            339            359                  8.02       100
  424            359            337                 84.30       100
  425            337            357                 41.15       100
  426            357            358                  7.98       100
  427            358            349                 46.97       100
  428            358            355                 84.81       100
  429            357            356                 85.82       100
  430            355            354                 35.72       100
  431            354            353                 10.77       100
  432            353            339                 84.32       100
  433            355            356                  8.51       100
  434            356            359                 40.20       100
  435            346            333                 98.97       100
  436            348            335                103.83       100
  437            347            334                 92.84       100
  438            334            333                130.84       100
  439            335            336                145.12       100
  440            328            335                159.43       100
  441            360            361                 58.08       100
  442            336            361                182.74       100
  443            338            360                136.14       100
  444            362            363                 56.64       200
  445            363            364                124.89       200
  446            364            365                 18.10       200
  447            329            362                226.92       200


  Page 10                                                               
  Link - Node Table: (continued)
  ----------------------------------------------------------------------
  Link           Start          End                Length  Diameter
  ID             Node           Node                    m        mm
  ----------------------------------------------------------------------
  448            329            366                289.15       200
  449            366            367                225.96       200
  450            367            362                285.17       200
  451            364            370                131.54       100
  452            365            368                134.96       100
  453            368            370                  9.59       100
  454            369            371                 10.72       100
  455            372            371                 99.29       100
  456            371            380                 19.07       100
  457            373            369                 97.95       100
  458            376            375                103.17       100
  459            375            374                  7.25       100
  460            377            374                102.47       100
  461            377            376                  6.99       100
  462            377            371                 41.61       100
  463            372            383                138.70       200
  464            372            373                 13.77       200
  465            342            384                 10.54       200
  466            384            373                245.31       200
  467            383            381                106.74       200
  468            381            382                  9.97       200
  469            381            376                 94.82       100
  470            382            379                 91.59       100
  471            379            378                  9.75       100
  472            378            380                 38.00       100
  473            365            351                 21.29       200
  474            370            386                113.63       100
  475            386            363                134.17       100
  476            380            387                110.27       100
  477            387            388                141.87       100
  478            382            388                107.93       100
  479            382            390                 28.56       200
  480            392            394                112.03       100
  481            391            395                111.96       100
  482            259            393                 48.14       200
  483            393            392                163.58       200
  484            392            391                 17.98       200
  485            391            389                373.86       200
  486            389            395                226.01       200
  487            395            394                 13.47       200
  488            394            259                191.13       200
  489            406            407                 17.22       200
  490            407            408                101.47       200
  491            408            403                149.65       200
  492            403            402                 14.72       200
  493            402            401                108.35       200
  494            401            400                 12.38       200


  Page 11                                                               
  Link - Node Table: (continued)
  ----------------------------------------------------------------------
  Link           Start          End                Length  Diameter
  ID             Node           Node                    m        mm
  ----------------------------------------------------------------------
  495            400            397                 71.25       200
  496            397            396                 13.85       200
  497            400            409                117.65       200
  498            409            410                 13.50       200
  499            410            401                117.98       200
  500            396            399                134.07       100
  501            399            398                 15.17       100
  502            398            397                132.87       100
  503            399            411                 75.25       100
  505            244            413                 20.42       200
  506            413            414                 11.03       200
  507            413            411                 40.58       200
  508            411            415                147.84       200
  509            415            396                 79.95       200
  510            402            405                112.02       100
  511            403            404                 95.98       100
  512            404            407                149.60       100
  513            405            406                161.81       100
  514            406            417                 98.25       200
  515            417            416                 68.23       300
  516            418            416                257.75       300
  517            421            418                125.55       300
  518            421            422                115.01       300
  519            423            422                315.74       300
  520            425            423                210.28       300
  521            343            426                 11.60       200
  522            426            419                105.25       200
  523            426            384                 11.22       200
  524            419            429                161.84       200
  525            429            427                 13.46       200
  526            427            420                150.56       100
  527            420            428                156.08       100
  528            429            427                 13.46       200
  529            427            428                156.80       100
  530            429            430                141.97       200
  531            430            435                 18.71       200
  532            435            432                151.09       200
  533            432            433                 11.49       200
  534            433            434                123.57       100
  535            432            435                299.49       100
  536            433            434                284.90       100
  537            436            437                594.31       300
  538            438            432                 15.22       200
  539            436            433                 14.32       200
  540            436            438                 12.23       300
  541            439            440                141.51       100
  542            442            445                113.36       100


  Page 12                                                               
  Link - Node Table: (continued)
  ----------------------------------------------------------------------
  Link           Start          End                Length  Diameter
  ID             Node           Node                    m        mm
  ----------------------------------------------------------------------
  543            445            444                 52.22       100
  544            441            445                126.82       100
  545            431            446                122.67       200
  546            446            447                 42.14       200
  547            447            448                  8.82       200
  548            448            449                 39.68       200
  549            449            450                  7.98       200
  550            447            455                 84.58       100
  551            455            454                  9.08       100
  552            454            448                 83.34       100
  553            454            453                 42.37       100
  554            453            452                  8.38       100
  555            452            450                 63.57       100
  556            453            449                 66.57       100
  557            452            451                 86.47       100
  558            450            451                 38.69       100
  559            453            452                  8.38       100
  560            431            443                 11.57       200
  561            443            442                 43.07       200
  562            442            441                 13.05       200
  563            441            440                 31.27       200
  564            440            439                  7.05       200
  565            438            439                 63.16       200
  566            216            437                260.97       600
  567            437            425                 12.56       300
  568            417            457                128.63       200
  569            457            458                 18.80       200
  570            458            461                 11.25       100
  571            461            462                174.48       100
  572            461            462                135.92       100
  573            462            463                208.59       100
  574            463            460                156.47       100
  575            460            459                 13.62       200
  576            464            465                163.57       100
  577            465            466                140.38       100
  578            466            467                244.78       100
  579            467            464                192.19       100
  580            460            465                 27.45       200
  581            482            481                 39.21       100
  582            481            480                 14.07       100
  583            480            479                 37.93       100
  584            479            478                 18.55       100
  585            478            477                 42.88       100
  586            477            476                124.57       100
  587            476            475                 44.56       100
  588            475            474                 11.49       100
  589            474            473                 41.39       100


  Page 13                                                               
  Link - Node Table: (continued)
  ----------------------------------------------------------------------
  Link           Start          End                Length  Diameter
  ID             Node           Node                    m        mm
  ----------------------------------------------------------------------
  590            473            472                 10.52       100
  592            472            481                125.28       100
  593            480            473                126.42       100
  594            474            479                125.28       100
  595            478            475                128.94       100
  596            482            470                131.50       100
  597            470            469                130.99       100
  598            469            468                  9.48       100
  599            468            483                313.98       100
  600            483            477                143.44       100
  601            482            471                124.48       100
  602            471            470                 12.47       100
  603            471            472                 42.90       100
  604            468            457                  9.98       200
  605            414            484                436.62       200
  606            484            485                142.48       200
  607            486            502                146.84       200
  608            486            490                216.69       200
  609            485            487                216.80       200
  611            488            493                222.60       200
  612            493            494                 14.97       200
  614            498            500                 10.53       100
  615            500            501                 66.61       100
  616            501            495                 79.46       100
  617            495            492                131.56       100
  618            492            491                 19.16       200
  619            491            490                141.33       200
  620            492            489                139.25       100
  621            488            487                271.41       100
  622            502            491                197.10       200
  623            489            504                167.55       200
  624            487            488                 16.10       200
  625            490            489                 15.18       200
  626            504            496                  7.39       200
  627            496            494                 47.45       200
  628            497            498                 58.42       100
  629            499            500                 61.57       100
  630            496            497                 71.85       200
  631            497            499                 10.29       100
  632            499            495                 41.83       100
  633            504            503                123.40       100
  634            414            493                161.64       200
  635            458            459                158.09       200
  118            181            255                110.73       300
  121            181            256                304.90       300
  128            182            46                  12.40       300
  142            46             183                 29.13       300


  Page 14                                                               
  Link - Node Table: (continued)
  ----------------------------------------------------------------------
  Link           Start          End                Length  Diameter
  ID             Node           Node                    m        mm
  ----------------------------------------------------------------------
  225            183            184                  4.49       300
  226            184            245                 20.80       300
  227            183            271                  6.36       300
  228            184            289                237.40       300
  229            289            290                 10.82       300
  277            290            293                 10.69       200
  285            290            332                262.21       300
  292            332            330                 20.01       300
  301            330            331                  5.32       300
  316            330            385                422.19       300
  334            412            424                214.66       200
  339            424            456                231.28       200
  411            456            505                305.10       100
  420            412            505                129.02       200
  422            505            506                 18.53       200
  504            506            507                105.22       200
  591            508            506                313.34       100
  610            507            509                443.57       200
  613            509            508                293.63       200
  636            508            456                 14.21       200
  637            385            412                  5.25       200
  638            518            516                169.05       200
  639            516            517                 18.92       200
  641            510            511                227.10       200
  642            511            512                184.48       200
  643            512            513                 14.20       200
  644            513            514                 86.62       100
  645            514            515                 13.62       100
  646            515            516                 82.52       100
  647            512            517                182.26       100
  648            521            513                175.76       200
  649            520            514                169.06       100
  650            519            515                169.81       100
  651            521            520                 92.41       200
  652            520            519                 14.55       200
  653            519            518                 78.32       200
  654            331            518                  8.14       200
  655            517            510                193.51       200
  656            159            534                 18.01       200
  657            534            528                 81.09       200
  658            528            529                 17.85       200
  659            529            530                 82.24       200
  660            530            531                194.32       200
  661            531            532                 16.40       200
  662            532            525                 82.81       100
  663            525            524                 16.17       200
  664            524            523                 81.82       100


  Page 15                                                               
  Link - Node Table: (continued)
  ----------------------------------------------------------------------
  Link           Start          End                Length  Diameter
  ID             Node           Node                    m        mm
  ----------------------------------------------------------------------
  665            531            526                 84.45       100
  666            526            527                 15.85       200
  667            527            522                 83.29       100
  668            534            522                199.61       200
  669            522            523                 11.44       200
  670            523            533                162.18       200
  671            528            527                197.09       100
  672            529            526                196.83       100
  673            532            535                160.07       200
  674            535            536                 84.08       200
  675            536            537                 15.00       200
  676            537            533                 83.67       200
  677            536            525                164.12       100
  678            524            537                165.21       100
  679            538            539                298.27       200
  680            539            540                 85.62       200
  681            540            541                 15.79       200
  682            541            542                 81.40       200
  683            543            541                302.84       100
  684            540            544                302.60       100
  685            542            545                302.98       200
  686            545            543                 84.96       200
  687            543            544                 17.78       200
  689            546            547                  7.31       200
  690            159            546                 11.55       300
  691            546            158                197.68       300
  692            547            544                 68.22       200
  693            547            538                 11.13       200
  695            553            558                 28.80       200
  696            558            557                 15.38       200
  697            557            554                 43.90       200
  698            554            555                 16.16       200
  699            555            556                114.06       200
  700            556            548                302.28       200
  701            548            549                114.03       200
  702            549            550                 14.65       200
  703            550            551                102.23       200
  704            156            553                 10.36       200
  705            551            552                294.71       200
  706            549            555                301.81       100
  707            550            554                302.36       100
  708            553            552                 18.42       200
  709            568            559                233.09       200
  710            559            560                298.38       200
  711            560            561                 65.19       200
  712            561            562                  9.59       200
  713            562            563                 40.65       200


  Page 16                                                               
  Link - Node Table: (continued)
  ----------------------------------------------------------------------
  Link           Start          End                Length  Diameter
  ID             Node           Node                    m        mm
  ----------------------------------------------------------------------
  714            563            564                 10.05       200
  715            564            565                 37.88       200
  716            565            566                  9.93       200
  717            566            567                 56.18       200
  718            567            568                293.08       200
  719            561            562                302.06       100
  720            563            564                139.71       100
  721            565            566                303.72       100
  722            45             569                 69.35       300
  723            569            156                212.97       300
  724            569            566                 10.28       200
  725            569            570                 16.30       200
  727            573            580                200.71       100
  728            580            581                 63.68       100
  729            581            582                  7.10       100
  730            582            583                 45.11       100
  731            583            584                  6.31       100
  732            584            585                 42.69       100
  733            585            586                  8.29       100
  734            586            572                 59.75       100
  735            573            574                 64.04       100
  736            574            575                  6.81       100
  737            575            582                201.50       100
  738            574            581                200.29       100
  739            575            576                 43.39       100
  740            576            577                  7.92       100
  741            577            584                199.92       100
  742            583            576                202.37       100
  743            577            578                 42.33       100
  744            570            586                201.73       100
  745            585            578                200.34       100
  746            570            571                 63.94       100
  747            571            572                199.46       100
  748            570            578                  5.74       100
  749            598            587                163.97       100
  750            587            588                 62.61       100
  751            588            597                150.21       100
  752            597            598                 64.82       100
  753            596            597                  9.08       100
  754            596            589                149.68       100
  755            589            588                  7.14       100
  756            589            590                 95.71       100
  757            590            591                  6.99       100
  758            591            271                 40.61       100
  759            271            592                 20.80       100
  760            592            593                117.69       100
  761            593            594                 62.47       100


  Page 17                                                               
  Link - Node Table: (continued)
  ----------------------------------------------------------------------
  Link           Start          End                Length  Diameter
  ID             Node           Node                    m        mm
  ----------------------------------------------------------------------
  762            594            595                  5.93       100
  763            595            596                 92.46       100
  764            595            590                132.01       100
  765            591            594                129.71       100
  767            599            612                162.46       200
  768            612            611                 15.01       200
  769            611            610                195.76       200
  770            610            609                116.33       200
  772            608            607                 48.95       200
  773            607            606                  7.89       200
  775            605            604                201.56       200
  776            604            603                 11.86       200
  777            603            602                160.29       200
  778            602            601                100.59       200
  779            601            600                 12.72       200
  780            600            599                107.51       200
  783            614            603                102.05       100
  784            613            600                159.30       100
  785            601            614                161.93       100
  786            611            616                114.00       100
  787            616            615                 13.80       100
  788            615            618                 41.98       100
  789            618            619                 11.86       100
  790            619            604                 48.20       100
  791            607            618                199.91       100
  792            606            619                199.37       100
  793            609            616                200.22       100
  794            608            615                200.71       100
  795            609            608                 12.63       200
  796            612            613                114.38       100
  797            613            614                 13.56       100
  798            156            620                  9.65       300
  799            620            157                230.02       300
  800            620            621                 16.73       200
  801            621            605                 19.85       200
  802            621            606                 24.37       200
  803            293            625                 99.98       200
  804            625            624                 15.01       200
  805            624            623                111.20       200
  806            623            622                582.55       200
  807            624            625                264.90       100
  808            245            627                221.82       200
  809            627            626                 14.55       200
  810            626            629                122.03       100
  811            627            628                168.21       100
  812            245            630                233.54       200
  813            630            631                 18.94       200


  Page 18                                                               
  Link - Node Table: (continued)
  ----------------------------------------------------------------------
  Link           Start          End                Length  Diameter
  ID             Node           Node                    m        mm
  ----------------------------------------------------------------------
  814            631            632                107.46       200
  815            632            633                 15.95       200
  816            630            628                244.85       100
  817            631            634                 55.99       100
  818            634            635                 17.78       100
  819            635            636                 51.54       100
  820            636            637                106.72       100
  821            637            641                 10.25       200
  822            641            640                 17.85       200
  823            641            638                 78.62       100
  824            638            639                 18.99       100
  825            639            632                 58.85       100
  826            633            640                160.70       200
  827            640            642                190.38       200
  828            633            643                100.92       200
  829            176            644                333.52       200
  830            645            646                434.84       200
  831            229            648                 21.07       200
  832            648            647                 45.80       200
  833            647            645                209.65       200
  834            648            649                318.67       200
  835            256            650                689.50       300
  836            650            651                924.85       300
  837            651            653                424.47       300
  838            652            653                790.70       300
  839            650            652                602.04       300
  197            661            659                158.85       200
  726            658            675                 75.98       200
  766            675            674                 11.93       200
  771            674            673                 43.43       200
  781            672            671                 41.03       200
  840            671            676                  8.71       200
  841            672            667                160.13       100
  842            673            666                157.77       100
  843            675            664                158.49       100
  844            674            665                158.19       100
  845            579            658                138.48       200
  846            673            672                  7.75       200
  847            676            659                 43.30       200
  848            669            661                 39.73       200
  849            669            676                158.55       100
  850            668            671                158.19       100
  851            669            668                  8.29       200
  852            668            667                 41.54       200
  853            667            666                  7.50       200
  854            666            665                 43.06       200
  855            665            664                 13.16       200


  Page 19                                                               
  Link - Node Table: (continued)
  ----------------------------------------------------------------------
  Link           Start          End                Length  Diameter
  ID             Node           Node                    m        mm
  ----------------------------------------------------------------------
  856            664            663                 74.76       200
  857            663            579                 19.87       200
  858            579            617                 11.86       200
  859            9              617                 29.07       300
  860            617            655                167.77       300
  861            655            656                 12.60       200
  862            657            656                 13.68       200
  863            656            654                219.23       200
  864            655            677                229.07       300
  865            654            684                 78.90       200
  866            684            685                 13.43       200
  867            685            686                 41.54       200
  868            686            687                  9.08       200
  869            687            688                 43.48       200
  870            688            689                  7.58       200
  871            689            662                 37.05       200
  872            662            691                 15.07       200
  873            691            660                216.02       200
  874            682            688                234.23       100
  875            689            683                234.75       100
  876            681            687                233.24       100
  877            680            686                234.51       100
  878            685            679                233.18       100
  879            678            684                233.44       100
  880            660            683                 42.36       200
  881            683            682                  9.49       200
  882            682            681                 40.65       200
  883            681            680                  7.92       200
  884            680            679                 43.43       200
  885            679            678                 15.42       200
  886            678            657                 72.92       200
  887            695            677                 17.85       300
  888            695            696                  7.50       300
  889            695            697                  7.88       200
  890            696            698                 19.77       200
  892            699            705                233.63       200
  893            705            704                161.48       200
  894            704            703                 13.44       200
  895            703            697                231.72       200
  896            697            702                229.83       200
  897            702            701                234.01       200
  898            701            700                 11.86       200
  899            700            699                159.79       200
  900            700            704                232.19       100
  901            701            703                232.34       100
  902            698            706                240.32       100
  903            706            707                224.91       100


  Page 20                                                               
  Link - Node Table: (continued)
  ----------------------------------------------------------------------
  Link           Start          End                Length  Diameter
  ID             Node           Node                    m        mm
  ----------------------------------------------------------------------
  904            707            708                223.73       100
  905            708            698                221.07       100
  906            711            712                217.91       100
  907            711            710                231.93       100
  908            710            709                228.78       100
  909            698            709                 35.09       200
  910            714            712                 11.86       100
  911            709            714                234.23       100
  912            714            713                 24.58       200
  913            690            713                 19.83       200
  914            713            715                611.77       200
  915            690            717                284.01       300
  916            713            716                286.19       200
  917            715            718                489.52       200
  918            718            716                650.25       200
  919            717            719                 24.58       300
  920            719            720                 10.21       300
  921            720            721                653.27       200
  922            721            722                180.11       200
  923            690            692                 24.64       200
  924            723            714                 17.80       200
  925            723            690                 22.57       300
  926            677            723                244.27       300
  931            726            727                157.78       200
  932            725            724                237.34       200
  933            728            747                 70.60       200
  935            744            745                 12.63       200
  936            745            746                 53.07       200
  937            744            727                 76.92       200
  938            740            741                 10.29       200
  939            741            742                 60.16       200
  940            742            743                  7.89       200
  941            743            726                 71.92       200
  942            729            740                 68.66       200
  943            730            739                 70.79       200
  944            739            738                 13.01       200
  945            738            736                 60.89       200
  946            736            737                  9.00       200
  947            737            725                 71.49       200
  948            724            735                116.77       200
  949            735            734                 14.29       200
  950            734            733                 66.46       200
  951            733            732                 11.05       200
  952            732            731                 63.34       200
  953            732            739                237.26       100
  954            733            738                234.23       100
  955            734            736                234.67       100


  Page 21                                                               
  Link - Node Table: (continued)
  ----------------------------------------------------------------------
  Link           Start          End                Length  Diameter
  ID             Node           Node                    m        mm
  ----------------------------------------------------------------------
  956            735            737                233.67       100
  957            742            745                153.93       100
  958            743            744                154.12       100
  959            740            747                154.33       100
  960            746            741                151.92       100
  961            692            691                 22.65       200
  962            731            692                 20.32       200
  963            692            730                220.40       200
  964            729            728                153.67       200
  965            730            729                 30.26       200
  966            746            747                  9.60       200
  967            719            766                250.31       200
  968            766            767                 15.76       200
  969            767            784                154.55       200
  970            766            787                  9.77       200
  971            787            764                 83.47       200
  972            764            765                 11.86       200
  973            767            762                 89.63       200
  974            767            726                 42.43       200
  975            765            759                 73.60       200
  976            759            758                 12.63       200
  977            758            756                 84.28       200
  978            756            757                 12.72       200
  979            757            752                117.35       200
  980            753            754                109.30       200
  981            754            755                 12.62       200
  982            755            761                 77.95       200
  983            761            760                 15.79       200
  984            760            763                 71.96       200
  985            763            762                 14.21       200
  986            784            785                 90.84       200
  987            785            786                 13.44       200
  988            786            783                 71.92       200
  989            783            782                 13.44       200
  990            782            780                 80.93       200
  991            780            781                 13.58       200
  992            781            753                152.43       200
  993            785            762                155.82       100
  994            763            786                155.76       100
  995            783            760                157.33       100
  996            761            782                157.19       100
  997            780            755                148.20       100
  998            754            781                140.22       100
  999            787            788                140.27       100
  1000           788            768                 51.52       100
  1001           768            769                  9.47       100
  1002           769            770                 74.45       100


  Page 22                                                               
  Link - Node Table: (continued)
  ----------------------------------------------------------------------
  Link           Start          End                Length  Diameter
  ID             Node           Node                    m        mm
  ----------------------------------------------------------------------
  1003           770            771                  8.72       100
  1004           771            772                 82.31       100
  1005           772            773                 11.86       100
  1006           773            775                111.49       100
  1007           775            776                 54.59       100
  1008           775            774                  8.72       100
  1009           774            777                 56.17       100
  1010           750            777                 63.07       100
  1011           777            776                  8.72       100
  1012           776            778                109.19       100
  1013           779            751                176.64       100
  1014           773            778                 55.60       100
  1015           778            779                 11.86       100
  1016           779            757                 74.33       100
  1017           772            756                142.47       100
  1018           771            758                141.89       100
  1019           770            759                140.78       100
  1020           768            764                140.69       100
  1021           769            765                140.05       100
  1022           752            751                 86.24       200
  1023           751            750                 13.48       200
  1024           750            749                 96.79       200
  1025           717            716                 19.87       200
  1026           23             790                 11.20       300
  1027           790            789                 38.57       300
  1029           789            791                425.02       300
  1030           803            795                226.65       100
  1031           795            794                151.07       100
  1032           794            793                 17.65       300
  1033           793            792                191.29       100
  1034           792            806                224.78       100
  1035           806            805                190.55       300
  1036           805            804                 20.58       300
  1037           804            803                174.91       100
  1038           804            794                223.83       100
  1039           793            805                225.63       100
  1040           791            807                234.37       300
  1041           807            803                 13.44       200
  1042           808            796                203.99       100
  1043           796            797                 23.01       100
  1044           797            798                183.51       100
  1045           798            799                212.70       100
  1046           799            800                189.50       100
  1047           800            801                 18.17       100
  1048           801            802                182.78       100
  1049           802            808                219.47       100
  1050           796            801                220.68       100


  Page 23                                                               
  Link - Node Table: (continued)
  ----------------------------------------------------------------------
  Link           Start          End                Length  Diameter
  ID             Node           Node                    m        mm
  ----------------------------------------------------------------------
  1051           797            800                219.48       100
  1052           789            798                 13.15       200
  1053           816            815                191.04       100
  1054           815            814                 18.17       100
  1055           814            813                181.47       100
  1056           813            822                237.82       100
  1057           822            823                209.55       100
  1058           823            824                 16.59       100
  1059           824            825                186.33       100
  1060           825            816                239.33       100
  1061           815            824                239.58       100
  1062           823            814                241.25       100
  1063           807            821                268.60       300
[...]
  3263                 12.34      0.02      0.01      Open
  3264                 22.37      0.03      0.04      Open
  3265                -52.68      0.08      0.17      Open
  3266                  6.47      0.01      0.00      Open
  3267                  3.52      0.01      0.00      Open
  3268                 18.95      0.03      0.03      Open
  3269                  6.50      0.01      0.00      Open
  3270                 -3.52      0.01      0.00      Open
  3271                 12.45      0.02      0.01      Open
  3272                -10.02      0.01      0.01      Open
  3273              -1673.00      0.27      0.50      Open
  3274              -2261.75      0.37      0.87      Open
  3275              -3098.66      0.51      1.56      Open
  3277                  0.00      0.00      0.00      Open
  3278                304.00      0.11      0.15      Open
  3279                 -0.07      0.00      0.00      Open
  3280                  0.04      0.00      0.00      Open
  3281                  0.11      0.00      0.00      Open
  3283                  0.50      0.00      0.00      Open
  3284                  0.50      0.00      0.00      Open
  3285                  0.01      0.00      0.00      Open
  3286                  0.49      0.00      0.00      Open
  3287                 -0.12      0.00      0.00      Open
  3288                  0.61      0.00      0.00      Open
  3289                  0.07      0.00      0.00      Open
  3290                  0.54      0.00      0.00      Open
  3291                  0.11      0.00      0.00      Open
  3294                -22.26      0.03      0.04      Open
  3295                 22.26      0.03      0.04      Open
  3296                 22.23      0.03      0.04      Open
  3297                 37.74      0.06      0.09      Open
  3298                 37.77      0.06      0.09      Open
  3299                 -7.91      0.01      0.01      Open


  Page 202                                                              
  Link Results: (continued)
  ----------------------------------------------------------------------
  Link                  Flow  VelocityUnit Headloss    Status
  ID                     CMD       m/s      m/km
  ----------------------------------------------------------------------
  3300                 -0.03      0.00      0.00      Open
  3301                 95.00      0.03      0.02      Open
  3302                836.91      0.31      1.00      Open
  3303                  0.43      0.00      0.00      Open
  3304                  0.07      0.00      0.00      Open
  3305                  0.25      0.00      0.00      Open
  3306                  0.25      0.00      0.00      Open
  3307                  0.32      0.00      0.00      Open
  3308                  0.32      0.00      0.00      Open
  3309                  0.32      0.00      0.00      Open
  3310                  0.32      0.00      0.00      Open
  3311                  0.32      0.00      0.00      Open
  3312                  0.61      0.00      0.00      Open
  3313                  0.18      0.00      0.00      Open
  3314                 14.32      0.02      0.02      Open
  3315                  5.02      0.01      0.00      Open
  3316                  0.18      0.00      0.00      Open
  3317                  0.25      0.00      0.00      Open
  3318                  0.31      0.00      0.00      Open
  3319                  0.43      0.00      0.00      Open
  3320                  0.61      0.00      0.00      Open
  3321                  0.61      0.00      0.00      Open
  3322                  0.18      0.00      0.00      Open
  3323                  0.43      0.00      0.00      Open
  3324                  0.43      0.00      0.00      Open
  3325                  0.43      0.00      0.00      Open
  3326                  0.43      0.00      0.00      Open
  3327                  0.43      0.00      0.00      Open
  3328                  5.02      0.01      0.00      Open
  3329                  5.88      0.01      0.00      Open
  3330                -14.97      0.02      0.02      Open
  3331                -10.68      0.02      0.01      Open
  3332                 -4.28      0.01      0.00      Open
  3333                532.91      0.09      0.06      Open
  3334                 -4.15      0.01      0.00      Open
  3335                 -4.15      0.01      0.00      Open
  3336                 -4.15      0.01      0.00      Open
  3337                  0.44      0.00      0.00      Open
  3338                  0.44      0.00      0.00      Open
  3339                  0.36      0.00      0.00      Open
  3340                  0.31      0.00      0.00      Open
  3341                  0.18      0.00      0.00      Open
  3342                  0.00      0.00      0.00      Open
  3343                  0.18      0.00      0.00      Open
  3344                  0.12      0.00      0.00      Open
  3345                  0.05      0.00      0.00      Open
  3346                  0.08      0.00      0.00      Open


  Page 203                                                              
  Link Results: (continued)
  ----------------------------------------------------------------------
  Link                  Flow  VelocityUnit Headloss    Status
  ID                     CMD       m/s      m/km
  ----------------------------------------------------------------------
  3347                214.53      0.08      0.08      Open
  3348                -22.56      0.03      0.04      Open
  3349                -22.56      0.03      0.04      Open
  3350                -22.56      0.03      0.04      Open
  3351              -1214.00      0.45      1.99      Open
  3352              -3193.66      0.52      1.65      Open
  3353               1515.10      0.56      3.00      Open
  3354                582.00      0.21      0.51      Open
  3355                -49.09      0.02      0.00      Open
  3358                160.85      0.24      1.38      Open
  3359                132.86      0.20      0.97      Open
  3360                148.96      0.22      1.19      Open
  3361                148.00      0.22      1.18      Open
  3362                  0.00      0.00      0.00      Open
  3363                  0.00      0.00      0.00      Open
  3364                  0.42      0.00      0.00      Open
  3365                  0.00      0.00      0.00      Open
  3366                  0.42      0.00      0.00      Open
  3367                  0.41      0.00      0.00      Open
  3368                  0.41      0.00      0.00      Open
  3369                  0.41      0.00      0.00      Open
  3370                  0.41      0.00      0.00      Open
  3371                  0.41      0.00      0.00      Open
  3372                  0.41      0.00      0.00      Open
  3373               -147.05      0.22      1.17      Open
  3374                -83.31      0.12      0.41      Open
  3375                -32.60      0.05      0.07      Open
  3376                  0.41      0.00      0.00      Open
  3377                -32.60      0.05      0.07      Open
  3378                -37.12      0.05      0.09      Open
  3379                -32.27      0.05      0.07      Open
  3380                -50.71      0.07      0.16      Open
  3381                -46.19      0.07      0.14      Open
  3382                -51.04      0.08      0.16      Open
  3383                -63.74      0.09      0.25      Open
  3384                -79.84      0.12      0.38      Open
  3385                -51.84      0.08      0.17      Open
  3386                135.15      0.20      1.00      Open
  3387                 27.99      0.04      0.05      Open
  3388                 16.10      0.02      0.02      Open
  3389                  4.85      0.01      0.00      Open
  3390                  4.53      0.01      0.00      Open
  3391                 83.31      0.12      0.41      Open
  3392                 32.27      0.05      0.07      Open
  3393                -69.73      0.10      0.29      Open
  3394                -34.87      0.05      0.08      Open
  3395               -167.36      0.25      1.48      Open


  Page 204                                                              
  Link Results: (continued)
  ----------------------------------------------------------------------
  Link                  Flow  VelocityUnit Headloss    Status
  ID                     CMD       m/s      m/km
  ----------------------------------------------------------------------
  3396               -237.09      0.35      2.82      Open
  3397               -134.60      0.20      0.99      Open
  3398                -39.89      0.06      0.10      Open
  3399               -102.49      0.15      0.60      Open
  3400                -69.73      0.10      0.29      Open
  3401                 69.73      0.10      0.29      Open
  3402                -62.60      0.09      0.24      Open
  3403                -34.87      0.05      0.08      Open
  3404                -69.73      0.10      0.29      Open
  3405                -33.00      0.05      0.07      Open
  3406                  0.00      0.00      0.00      Open
  3407                -33.00      0.05      0.07      Open
  3408                 69.73      0.10      0.29      Open
  3409                 33.00      0.05      0.07      Open
  3410                  0.00      0.00      0.00      Open
  3411                -29.57      0.04      0.06      Open
  3412                -14.41      0.02      0.02      Open
  3413                  0.00      0.00      0.00      Open
  3414                 14.41      0.02      0.02      Open
  3415                -15.16      0.02      0.02      Open
  3416                 36.73      0.05      0.09      Open
  3417                  0.41      0.00      0.00      Open
  3418                  0.41      0.00      0.00      Open
  3419                  0.41      0.00      0.00      Open
  3420                  0.41      0.00      0.00      Open
  3421                  0.41      0.00      0.00      Open
  3422                  0.00      0.00      0.00      Open
  3423                  0.00      0.00      0.00      Open
  3424                 33.03      0.05      0.07      Open
  3425                237.10      0.09      0.10      Open
  3426                102.49      0.04      0.02      Open
  3427                 62.60      0.02      0.01      Open
  3428                 29.57      0.01      0.00      Open
  3429                 14.41      0.01      0.00      Open
  3430                  0.00      0.00      0.00      Open
  3432                  0.15      0.00      0.00      Open
  3433                  0.11      0.00      0.00      Open
  3434                  0.00      0.00      0.00      Open
  3435                  0.11      0.00      0.00      Open
  3436                  0.58      0.00      0.00      Open
  3437                  0.24      0.00      0.00      Open
  3438                  0.58      0.00      0.00      Open
  3439                  0.11      0.00      0.00      Open
  3440                  0.04      0.00      0.00      Open
  3441                 -0.36      0.00      0.00      Open
  3442                  0.01      0.00      0.00      Open
  3443                 -0.40      0.00      0.00      Open


  Page 205                                                              
  Link Results: (continued)
  ----------------------------------------------------------------------
  Link                  Flow  VelocityUnit Headloss    Status
  ID                     CMD       m/s      m/km
  ----------------------------------------------------------------------
  3444                 -0.05      0.00      0.00      Open
  3445                 -0.51      0.00      0.00      Open
  3446                 -0.20      0.00      0.00      Open
  3447                  0.47      0.00      0.00      Open
  3448                  0.47      0.00      0.00      Open
  3449                  0.13      0.00      0.00      Open
  3450                  0.47      0.00      0.00      Open
  3451                  0.47      0.00      0.00      Open
  3452                  0.34      0.00      0.00      Open
  3453                  0.34      0.00      0.00      Open
  3455                  0.25      0.00      0.00      Open
  3456                 -0.12      0.00      0.00      Open
  3457                  0.29      0.00      0.00      Open
  3458                 -0.06      0.00      0.00      Open
  3459                  0.40      0.00      0.00      Open
  3460                  0.09      0.00      0.00      Open
  3461                 -0.11      0.00      0.00      Open
  3462                  0.11      0.00      0.00      Open
  3463                  0.20      0.00      0.00      Open
  3464                  0.31      0.00      0.00      Open
  3465                  0.47      0.00      0.00      Open
  3466                  0.42      0.00      0.00      Open
  3467                  0.36      0.00      0.00      Open
  3468                  0.37      0.00      0.00      Open
  3469                  0.40      0.00      0.00      Open
  3470                 -0.14      0.00      0.00      Open
  3471                977.00      0.36      1.33      Open
  3472                113.31      0.17      0.72      Open
  3473                 75.19      0.11      0.34      Open
  3474                 44.22      0.07      0.13      Open
  3475                 32.29      0.05      0.07      Open
  3476                 23.41      0.03      0.04      Open
  3477                 35.97      0.05      0.09      Open
  3478                642.69      0.24      0.61      Open
  3479                373.03      0.14      0.22      Open
  3482                 35.97      0.05      0.09      Open
  3483                 35.97      0.05      0.09      Open
  3484                  0.84      0.00      0.00      Open
  3485                  0.84      0.00      0.00      Open
  3486                  0.84      0.00      0.00      Open
  3487                -26.03      0.04      0.05      Open
  3488                -77.34      0.11      0.35      Open
  3489                -39.22      0.06      0.10      Open
  3490                 -8.25      0.01      0.01      Open
  3491                  3.68      0.01      0.00      Open
  3492                 12.56      0.02      0.01      Open
  3493                 12.56      0.02      0.01      Open


  Page 206                                                              
  Link Results: (continued)
  ----------------------------------------------------------------------
  Link                  Flow  VelocityUnit Headloss    Status
  ID                     CMD       m/s      m/km
  ----------------------------------------------------------------------
  3494                  8.88      0.01      0.01      Open
  3495                -11.93      0.02      0.01      Open
  3496                 38.12      0.06      0.10      Open
  3497                -30.97      0.05      0.07      Open
  3498                 26.87      0.04      0.05      Open
  3499                 26.87      0.04      0.05      Open
  3500                 26.87      0.04      0.05      Open
  3501                 26.87      0.04      0.05      Open
  3502                -35.13      0.05      0.08      Open
  3503                -35.13      0.05      0.08      Open
  3504                -35.13      0.05      0.08      Open
  3505                  0.00      0.00      0.00      Open
  36                  541.00      0.09      0.06      Open
  2108                  0.00      0.00      0.00      Open
  2328                  0.00      0.00      0.00      Open
  2553                  0.00      0.00      0.00      Open
  2554                992.00      0.37      1.37      Open
  2577             -62947.51      1.45      3.48      Open
  2578              62947.51      1.45      3.48      Open
  2676              62831.36      1.45      3.47      Open
  2652               2456.13      0.40      1.02      Open
  2717               2415.18      0.40      0.99      Open
  97                    0.00      0.00      0.00      Open
  2229                  0.00      0.00      0.00      Open
  2725                  0.00      0.00      0.00      Open
  2730                  0.00      0.00      0.00      Open
  2737               4708.76      0.77      3.39      Open
  2738               2400.95      0.88      7.03      Open
  2761              13000.00      0.53      0.76      Open
  2776              13000.00      0.53      0.76      Open
  2821              13000.00      0.53      0.76      Open
  2845              13000.00      0.53      0.76      Open
  2872                  0.00      0.00      0.00      Open
  2909                  0.00      0.00      0.00      Open
  2963                  0.00      0.00      0.00      Open
  2966                  0.00      0.00      0.00      Open
  2967                  0.00      0.00      0.00      Open
  3057                  0.00      0.00      0.00      Open
  3119                  0.00      0.00      0.00      Open
  3189                  0.00      0.00      0.00      Open
  3190                  0.00      0.00      0.00      Open
  3191                  0.00      0.00      0.00      Open
  3192                  0.00      0.00      0.00      Open
  3193                  0.00      0.00      0.00      Open
  3238                  0.00      0.00      0.00      Open
  3276                  0.00      0.00      0.00      Open
  3150                  0.00      0.00      0.00      Open


  Page 207                                                              
  Link Results: (continued)
  ----------------------------------------------------------------------
  Link                  Flow  VelocityUnit Headloss    Status
  ID                     CMD       m/s      m/km
  ----------------------------------------------------------------------
  3282                  0.00      0.00      0.00      Open
  3292                  0.00      0.00      0.00      Open
  3293                  0.00      0.00      0.00      Open
  3356              13000.00      0.53      0.76      Open
  3357              13000.00      2.13     22.26      Open
  3431                  0.00      0.00      0.00    Closed
  3454             -15498.51      0.36      0.26      Open
  3480             -21384.45      0.49      0.47      Open
  3481                  0.00      0.00      0.00      Open
  3506                  0.00      0.00      0.00    Closed
  3507                  0.00      0.00      0.00      Open
  3508                  0.00      0.00      0.00    Closed
  3509                  0.00      0.00      0.00      Open
  12                 5885.94      0.54      1.26      Open
  2731               5885.94      0.54      1.26      Open
  102                   0.00      0.00      0.00      Open
  3510                  0.00      0.00      0.00    Closed
  31                    0.00      0.00      0.00    Closed Valve
  41                    0.00      0.00      0.00    Closed Valve
  64                    0.00      0.00      0.00    Closed Valve
  99                    0.00      0.00      0.00    Closed Valve
  1661              13000.00      0.53     11.96    Active Valve
  2074              45456.13      1.05     20.93    Active Valve
  27                    0.00      0.00      0.00    Closed Valve
  29                    0.00      0.00      0.00      Open Valve
  2079                  0.00      0.00      0.00    Closed Valve
  2330                  0.00      0.00      0.00    Closed Valve
  2535                  0.00      0.00      0.00    Closed Valve
  2567                  0.00      0.00      0.00    Closed Valve
  2640                  0.00      0.00      0.00    Closed Valve
  2978                  0.00      0.00      0.00      Open Valve
  3127                  0.00      0.00      0.00    Closed Valve
  
