  Page 1                                            2025/9/2 下午 08:53:17
  **********************************************************************
  *                             E P A N E T                            *
  *                     Hydraulic and Water Quality                    *
  *                     Analysis for Pipe Networks                     *
  *                           Version 2.2                              *
  **********************************************************************
  
  Input File: MultiPattern-realCase1.inp
  
  
  
  Link - Node Table:
  ----------------------------------------------------------------------
  Link           Start          End                Length  Diameter
  ID             Node           Node                    m        mm
  ----------------------------------------------------------------------
  1              路口1            太平窩3-1號               100       100
  2              路口1            路口2                    50       100
  3              路口2            路口3                    50       100
  4              路口2            太平窩3號                  35       100
  5              路口3            太平窩3號(2)               55       100
  6              路口3            大平窩5號                 250       100
  7              大平窩5號          土地公                    90       100
  8              土地公            太平窩12號                 50       100
  9              太平窩12號         路口5                    50       100
  10             路口5            太平窩12-1號              120       100
  11             路口5            太平窩12號(2)              65       100
  13             太平窩8、9號        太平窩10號                 20       100
  14             太平窩10號         路口6                   180       100
  15             路口6            路口7                    85       100
  17             路口6            太平窩15號                 70       100
  18             太平窩15號         太平窩16號                 55       100
  19             太平窩16號         太平窩15號(2)              22       100
  20             路口7            太平窩18號                 40       100
  21             太平窩18號         太平窩17-1號               87       100
  減壓池前           減壓池前           太平窩20號、橋頭             150       100
  24             太平窩20號、橋頭      太平窩19號                 32       100
  25             太平窩20號、橋頭      太平窩19-8號               57       100
  26             太平窩23-3號       太平窩23-2號               40       100
  27             太平窩23-2號       大平窩29-1號               60       100
  28             大平窩29-1號       太平窩29號                 50       100
  29             太平窩29號         太平窩29號(2)              10       100
  30             大平窩29-1號       2鄰太平窩16號               35       100
  31             2鄰太平窩16號       2鄰太平窩27號               35       100
  32             大平窩29-1號       路口9                   120       100
  線              路口9            太平窩32、-1號              46       100
  34             路口9            太平窩38號                  5       100
  35             路口9            路口10                   70       100
  36             路口10           太平窩34-1號              107       100
  37             路口10           路口11                  205       100
  38             路口11           太平窩37號                120       100
  39             路口11           路口12                   50       100
  40             路口12           4鄰太平窩38號               90       100


  Page 2                                                                
  Link - Node Table: (continued)
  ----------------------------------------------------------------------
  Link           Start          End                Length  Diameter
  ID             Node           Node                    m        mm
  ----------------------------------------------------------------------
  41             4鄰太平窩38號       太平窩39，41號              20       100
  太平窩38-7號       路口12           38-7號                  80       100
  43             38-7號          路口13                  145       100
  44             路口13           太平窩43、43-1、-2號         46       100
  45             路口13           路口14                  150       100
  46             路口14           太平窩49、50號             250       100
  47             路口14           6鄰太平窩47-1號             47       100
  48             6鄰太平窩47-1號     5鄰太平窩50號               75       100
  49             5鄰太平窩50號       6鄰太平窩59-1號            100       100
  50             太平窩1號          路口1                    65       100
  51             太平窩29號(2)      3鄰太平窩25號              370       100
  52             太平窩16號         太平窩15-1號               97       100
  57             變電站路口          變電站                   501        80
  60             路口             54                    710       200
  61             54             55                    260       200
  63             55             3鄰14號                 300       200
  64             3鄰14號          4                     380       200
  65             1              太平窩1號                 100       100
  42             路口7            減壓池路口                 310       100
  62             太平窩39，41號      40號                   105       100
  67             配水池2加壓         路口                   1065       200
  68             祥喜1加壓站         配水池(土地公)             1500       200
  69             水池加壓1          變電站路口                 150       200
  33             減壓池路口          減壓池前                  100       100
  53             減壓池            太平窩23-3號              100       100
  59             大平窩5號          太平窩8、9號                70       100
  12             水池加壓1          配水池2                  925       200
  22             減壓池前           減壓池                    30       100
  23             減壓池路口          太平窩23-3號                1       100
  54             4              配水池3                  100       200
  56             配水池3           1                     100       100
  76             路口7            6                      10       100
  77             7              減壓池路口                 300       100
  78             大平窩29-1號       8                      60       100
  79             9              路口9                    60       100
  58             路口3            2                     125       100
  66             3              大平窩5號                 125       100
  73             4              1                       5       100
  74             太平窩1號          11                     65       100
  80             12             路口1                     1       100
  70             太平窩8、9號        13                      1       100
  81             14             太平窩10號                  1       100
  71             太平窩20號、橋頭      大平窩22-1、23號            70       100
  抽水機1           配水池(土地公)       水池加壓1                #N/A      #N/A Pump
  抽水機2           配水池2           配水池2加壓               #N/A      #N/A Pump
  減壓閥4           6              7                    #N/A       100 Valve
  75             8              9                    #N/A       100 Valve


  Page 3                                                                
  Link - Node Table: (continued)
  ----------------------------------------------------------------------
  Link           Start          End                Length  Diameter
  ID             Node           Node                    m        mm
  ----------------------------------------------------------------------
  減壓閥2           2              3                    #N/A       100 Valve
  減壓閥1           11             12                   #N/A       100 Valve
  減3             13             14                   #N/A       100 Valve
  
  Energy Usage:
  ----------------------------------------------------------------------
                    Usage   Avg.     Kw-hr      Avg.      Peak      Cost
  Pump             Factor Effic.     /m3        Kw        Kw      /day
  ----------------------------------------------------------------------
  抽水機1             100.00  75.00      0.23      2.70      2.71      0.00
  抽水機2             100.00  75.00      0.27     10.12     10.18      0.00
  ----------------------------------------------------------------------
                                                Demand Charge:      0.00
                                                Total Cost:         0.00
  
  Node Results at 0:00 Hrs:
  ----------------------------------------------------------------------
  Node                Demand      Head  Pressure   Quality
  ID                     CMD         m         m          
  ----------------------------------------------------------------------
  路口1                   0.00    295.70      9.98      0.00
  太平窩3-1號               2.00    295.70      9.98      0.00
  路口2                   1.00    295.69     17.49      0.00
  太平窩3號                 1.00    295.69     17.02      0.00
  路口3                   0.00    295.69     24.07      0.00
  太平窩3號(2)              1.00    295.69     20.18      0.00
  大平窩5號                 1.00    273.98     17.67      0.00
  土地公                   0.00    273.98     24.57      0.00
  太平窩12號                1.00    273.98     28.13      0.00
  路口5                   0.00    273.98     33.76      0.00
  太平窩12號(2)             2.00    273.98     46.15      0.00
  太平窩12-1號              1.00    273.98     36.09      0.00
  太平窩8、9號               2.00    273.98     45.18      0.00
  太平窩10號                1.00    238.00     14.77      0.00
  太平窩15-1號              1.00    237.98     20.35      0.00
  路口6                   0.00    237.98     24.72      0.00
  太平窩15號                1.00    237.98     31.38      0.00
  太平窩16號                1.00    237.98     35.42      0.00
  太平窩15號(2)             1.00    237.98     37.70      0.00
  路口7                   0.00    237.98     35.10      0.00
  太平窩18號                2.00    237.98     38.01      0.00
  太平窩17-1號              1.00    237.98     49.29      0.00
  太平窩19號                1.00    209.98     39.39      0.00
  太平窩20號、橋頭             1.00    209.98     41.67      0.00
  太平窩19-8號              1.00    209.98     37.03      0.00
  太平窩23-3號              1.00    209.98     38.69      0.00
  太平窩23-2號              1.00    209.98     39.99      0.00


  Page 4                                                                
  Node Results at 0:00 Hrs: (continued)
  ----------------------------------------------------------------------
  Node                Demand      Head  Pressure   Quality
  ID                     CMD         m         m          
  ----------------------------------------------------------------------
  大平窩29-1號              1.00    209.98     44.87      0.00
  2鄰太平窩16號              1.00    209.98     44.15      0.00
  2鄰太平窩27號              1.00    209.98     46.06      0.00
  太平窩29號                1.00    209.98     47.77      0.00
  太平窩29號(2)             2.00    209.98     47.78      0.00
  3鄰太平窩25號              1.00    209.98     33.78      0.00
  太平窩38號                1.00    168.00     14.26      0.00
  路口9                   0.00    168.00     16.01      0.00
  太平窩32、-1號             2.00    168.00     16.22      0.00
  路口10                  0.00    168.00     21.71      0.00
  太平窩34-1號              1.00    168.00     16.20      0.00
  路口11                  0.00    167.99     26.76      0.00
  太平窩37號                1.00    167.99     12.36      0.00
  路口13                  0.00    167.99     29.83      0.00
  太平窩43、43-1、-2號        3.00    167.99     28.33      0.00
  38-7號                 1.00    167.99     28.41      0.00
  路口12                  0.00    167.99     26.77      0.00
  4鄰太平窩38號              1.00    167.99     19.58      0.00
  太平窩39，41號             2.00    167.99     16.33      0.00
  路口14                  0.00    167.99     33.11      0.00
  6鄰太平窩47-1號            1.00    167.99     36.98      0.00
  5鄰太平窩50號              1.00    167.99     43.29      0.00
  6鄰太平窩59-1號            1.00    167.99     44.63      0.00
  太平窩49、50號             3.00    167.99     30.07      0.00
  太平窩1號                 1.00    311.54     10.03      0.00
  變電站路口                 3.00    240.29     72.46      0.00
  變電站                   1.00    240.29     37.61      0.00
  路口                    0.00    313.27     14.95      0.00
  54                    0.00    312.58     10.93      0.00
  55                    0.00    312.33      9.36      0.00
  3鄰14號                 0.00    312.03     26.32      0.00
  減壓池路口                 0.00    209.98     38.69      0.00
  40號                   1.00    167.99     19.12      0.00
  水池加壓1                 0.00    240.29     66.29      0.00
  配水池2加壓                0.00    314.30     75.10      0.00
  減壓池前                  0.00    209.98     38.69      0.00
  1                     0.00    311.55      2.55      0.00
  4                     0.00    311.66      2.66      0.00
  6                     0.00    237.98     37.98      0.00
  7                     0.00    210.00     10.00      0.00
  8                     0.00    209.98     51.98      0.00
  9                     0.00    168.00     10.00      0.00
  2                     0.00    295.67     31.67      0.00
  3                     0.00    274.00     10.00      0.00
  11                    0.00    311.53     25.83      0.00
  12                    0.00    295.70     10.00      0.00
  13                    0.00    273.98     45.98      0.00


  Page 5                                                                
  Node Results at 0:00 Hrs: (continued)
  ----------------------------------------------------------------------
  Node                Demand      Head  Pressure   Quality
  ID                     CMD         m         m          
  ----------------------------------------------------------------------
  14                    0.00    238.00     10.00      0.00
  大平窩22-1、23號           2.00    209.98     42.98      0.00
  祥喜1加壓站            -3503.14    192.00      0.00      0.00 Reservoir
  配水池2               -641.61    240.20      1.00      0.00 Tank
  配水池(土地公)           3232.94    174.21      2.00      0.00 Tank
  配水池3                853.80    311.57      2.50      0.00 Tank
  減壓池                   0.00    173.55      2.00      0.00 Tank
  
  Link Results at 0:00 Hrs:
  ----------------------------------------------------------------------
  Link                  Flow  VelocityUnit Headloss    Status
  ID                     CMD       m/s      m/km
  ----------------------------------------------------------------------
  1                     2.00      0.00      0.00      Open
  2                    51.01      0.08      0.14      Open
  3                    49.01      0.07      0.13      Open
  4                     1.00      0.00      0.00      Open
  5                     1.00      0.00      0.00      Open
  6                     0.00      0.00      0.00    Closed
  7                     4.00      0.01      0.00      Open
  8                     4.00      0.01      0.00      Open
  9                     3.00      0.00      0.00      Open
  10                    1.00      0.00      0.00      Open
  11                    2.00      0.00      0.00      Open
  13                    0.00      0.00      0.00    Closed
  14                   40.01      0.06      0.09      Open
  15                   36.01      0.05      0.07      Open
  17                    4.00      0.01      0.00      Open
  18                    3.00      0.00      0.00      Open
  19                    1.00      0.00      0.00      Open
  20                    3.00      0.00      0.00      Open
  21                    1.00      0.00      0.00      Open
  減壓池前                  5.00      0.01      0.00      Open
  24                    1.00      0.00      0.00      Open
  25                    1.00      0.00      0.00      Open
  26                   27.00      0.04      0.04      Open
  27                   26.00      0.04      0.04      Open
  28                    4.00      0.01      0.00      Open
  29                    3.00      0.00      0.00      Open
  30                    2.00      0.00      0.00      Open
  31                    1.00      0.00      0.00      Open
  32                    0.00      0.00      0.00    Closed
  線                     2.00      0.00      0.00      Open
  34                    1.00      0.00      0.00      Open
  35                   16.00      0.02      0.02      Open
  36                    1.00      0.00      0.00      Open
  37                   15.00      0.02      0.01      Open


  Page 6                                                                
  Link Results at 0:00 Hrs: (continued)
  ----------------------------------------------------------------------
  Link                  Flow  VelocityUnit Headloss    Status
  ID                     CMD       m/s      m/km
  ----------------------------------------------------------------------
  38                    1.00      0.00      0.00      Open
  39                   14.00      0.02      0.01      Open
  40                    4.00      0.01      0.00      Open
  41                    3.00      0.00      0.00      Open
  太平窩38-7號             10.00      0.01      0.01      Open
  43                    9.00      0.01      0.01      Open
  44                    3.00      0.00      0.00      Open
  45                    6.00      0.01      0.00      Open
  46                    3.00      0.00      0.00      Open
  47                    3.00      0.00      0.00      Open
  48                    2.00      0.00      0.00      Open
  49                    1.00      0.00      0.00      Open
  50                    0.00      0.00      0.00    Closed
  51                    1.00      0.00      0.00      Open
  52                    1.00      0.00      0.00      Open
  57                    1.00      0.00      0.00      Open
  60                  907.80      0.33      0.97      Open
  61                  907.80      0.33      0.97      Open
  63                  907.80      0.33      0.97      Open
  64                  907.80      0.33      0.97      Open
  65                   54.01      0.08      0.15      Open
  42                    0.00      0.00      0.00    Closed
  62                    1.00      0.00      0.00      Open
  67                  907.80      0.33      0.97      Open
  68                 3503.14      1.29     11.86      Open
  69                    4.00      0.00      0.00      Open
  33                    5.00      0.01      0.00      Open
  53                    0.00      0.00      0.00    Closed
  59                   43.01      0.06      0.10      Open
  12                  266.20      0.10      0.10      Open
  22                    0.00      0.00      0.00    Closed
  23                   28.00      0.04      0.04      Open
  54                  907.80      0.33      0.97      Open
  56                   54.01      0.08      0.15      Open
  76                   33.00      0.05      0.06      Open
  77                   33.00      0.05      0.06      Open
  78                   19.00      0.03      0.02      Open
  79                   19.00      0.03      0.02      Open
  58                   48.00      0.07      0.12      Open
  66                   48.00      0.07      0.12      Open
  73                    0.00      0.00      0.00    Closed
  74                   53.00      0.08      0.15      Open
  80                   53.00      0.08      0.15      Open
  70                   41.00      0.06      0.09      Open
  81                   41.00      0.06      0.09      Open
  71                    2.00      0.00      0.00      Open
  抽水機1                270.20      0.00    -66.08      Open Pump


  Page 7                                                                
  Link Results at 0:00 Hrs: (continued)
  ----------------------------------------------------------------------
  Link                  Flow  VelocityUnit Headloss    Status
  ID                     CMD       m/s      m/km
  ----------------------------------------------------------------------
  抽水機2                907.80      0.00    -74.10      Open Pump
  減壓閥4                 33.00      0.05     27.98    Active Valve
  75                   19.00      0.03     41.98    Active Valve
  減壓閥2                 48.00      0.07     21.67    Active Valve
  減壓閥1                 53.00      0.08     15.83    Active Valve
  減3                   41.00      0.06     35.98    Active Valve
  
  Node Results at 1:00 Hrs:
  ----------------------------------------------------------------------
  Node                Demand      Head  Pressure   Quality
  ID                     CMD         m         m          
  ----------------------------------------------------------------------
  路口1                   0.00    295.70      9.98      0.00
  太平窩3-1號               1.00    295.70      9.98      0.00
  路口2                   0.50    295.70     17.50      0.00
  太平窩3號                 0.50    295.70     17.03      0.00
  路口3                   0.00    295.70     24.08      0.00
  太平窩3號(2)              0.50    295.70     20.19      0.00
  大平窩5號                 0.50    274.00     17.69      0.00
  土地公                   0.00    274.00     24.58      0.00
  太平窩12號                0.50    274.00     28.14      0.00
  路口5                   0.00    274.00     33.77      0.00
  太平窩12號(2)             1.00    274.00     46.16      0.00
  太平窩12-1號              0.50    274.00     36.10      0.00
  太平窩8、9號               1.00    273.99     45.19      0.00
  太平窩10號                0.50    238.00     14.77      0.00
  太平窩15-1號              0.50    238.00     20.36      0.00
  路口6                   0.00    238.00     24.73      0.00
  太平窩15號                0.50    238.00     31.39      0.00
  太平窩16號                0.50    238.00     35.43      0.00
  太平窩15號(2)             0.50    238.00     37.71      0.00
  路口7                   0.00    237.99     35.12      0.00
  太平窩18號                1.00    237.99     38.03      0.00
  太平窩17-1號              0.50    237.99     49.31      0.00
  太平窩19號                0.50    209.99     39.40      0.00
  太平窩20號、橋頭             0.50    209.99     41.68      0.00
  太平窩19-8號              0.50    209.99     37.04      0.00
  太平窩23-3號              0.50    209.99     38.70      0.00
  太平窩23-2號              0.50    209.99     40.01      0.00
  大平窩29-1號              0.50    209.99     44.89      0.00
  2鄰太平窩16號              0.50    209.99     44.16      0.00
  2鄰太平窩27號              0.50    209.99     46.07      0.00
  太平窩29號                0.50    209.99     47.78      0.00
  太平窩29號(2)             1.00    209.99     47.79      0.00
  3鄰太平窩25號              0.50    209.99     33.79      0.00
  太平窩38號                0.50    168.00     14.26      0.00
  路口9                   0.00    168.00     16.01      0.00


  Page 8                                                                
  Node Results at 1:00 Hrs: (continued)
  ----------------------------------------------------------------------
  Node                Demand      Head  Pressure   Quality
  ID                     CMD         m         m          
  ----------------------------------------------------------------------
  太平窩32、-1號             1.00    168.00     16.22      0.00
  路口10                  0.00    168.00     21.72      0.00
  太平窩34-1號              0.50    168.00     16.20      0.00
  路口11                  0.00    168.00     26.77      0.00
  太平窩37號                0.50    168.00     12.36      0.00
  路口13                  0.00    168.00     29.83      0.00
  太平窩43、43-1、-2號        1.50    168.00     28.34      0.00
  38-7號                 0.50    168.00     28.42      0.00
  路口12                  0.00    168.00     26.77      0.00
  4鄰太平窩38號              0.50    168.00     19.59      0.00
  太平窩39，41號             1.00    168.00     16.34      0.00
  路口14                  0.00    168.00     33.11      0.00
  6鄰太平窩47-1號            0.50    168.00     36.99      0.00
  5鄰太平窩50號              0.50    168.00     43.29      0.00
  6鄰太平窩59-1號            0.50    168.00     44.63      0.00
  太平窩49、50號             1.50    168.00     30.08      0.00
  太平窩1號                 0.50    312.01     10.50      0.00
  變電站路口                 1.50    240.29     72.45      0.00
  變電站                   0.50    240.29     37.61      0.00
  路口                    0.00    313.69     15.37      0.00
  54                    0.00    313.01     11.36      0.00
  55                    0.00    312.76      9.79      0.00
  3鄰14號                 0.00    312.48     26.76      0.00
  減壓池路口                 0.00    209.99     38.70      0.00
  40號                   0.50    168.00     19.13      0.00
  水池加壓1                 0.00    240.29     66.29      0.00
  配水池2加壓                0.00    314.70     75.50      0.00
  減壓池前                  0.00    209.99     38.70      0.00
  1                     0.00    312.01      3.01      0.00
  4                     0.00    312.11      3.11      0.00
  6                     0.00    237.99     37.99      0.00
  7                     0.00    210.00     10.00      0.00
  8                     0.00    209.99     51.99      0.00
  9                     0.00    168.00     10.00      0.00
  2                     0.00    295.69     31.69      0.00
  3                     0.00    274.00     10.00      0.00
  11                    0.00    312.01     26.31      0.00
  12                    0.00    295.70     10.00      0.00
  13                    0.00    273.99     45.99      0.00
  14                    0.00    238.00     10.00      0.00
  大平窩22-1、23號           1.00    209.99     42.99      0.00
  祥喜1加壓站            -3340.38    192.00      0.00      0.00 Reservoir
  配水池2               -622.48    240.19      0.99      0.00 Tank
  配水池(土地公)           3062.81    175.72      3.50      0.00 Tank
  配水池3                871.04    312.02      2.95      0.00 Tank
  減壓池                   0.00    173.55      2.00      0.00 Tank
  


  Page 9                                                                
  Link Results at 1:00 Hrs:
  ----------------------------------------------------------------------
  Link                  Flow  VelocityUnit Headloss    Status
  ID                     CMD       m/s      m/km
  ----------------------------------------------------------------------
  1                     1.00      0.00      0.00      Open
  2                    25.51      0.04      0.04      Open
  3                    24.51      0.04      0.04      Open
  4                     0.50      0.00      0.00      Open
  5                     0.50      0.00      0.00      Open
  6                     0.00      0.00      0.00    Closed
  7                     2.00      0.00      0.00      Open
  8                     2.00      0.00      0.00      Open
  9                     1.50      0.00      0.00      Open
  10                    0.50      0.00      0.00      Open
  11                    1.00      0.00      0.00      Open
  13                    0.00      0.00      0.00    Closed
  14                   20.01      0.03      0.02      Open
  15                   18.01      0.03      0.02      Open
  17                    2.00      0.00      0.00      Open
  18                    1.50      0.00      0.00      Open
  19                    0.50      0.00      0.00      Open
  20                    1.50      0.00      0.00      Open
  21                    0.50      0.00      0.00      Open
  減壓池前                  2.50      0.00      0.00      Open
  24                    0.50      0.00      0.00      Open
  25                    0.50      0.00      0.00      Open
  26                   13.50      0.02      0.01      Open
  27                   13.00      0.02      0.01      Open
  28                    2.00      0.00      0.00      Open
  29                    1.50      0.00      0.00      Open
  30                    1.00      0.00      0.00      Open
  31                    0.50      0.00      0.00      Open
  32                    0.00      0.00      0.00    Closed
  線                     1.00      0.00      0.00      Open
  34                    0.50      0.00      0.00      Open
  35                    8.00      0.01      0.00      Open
  36                    0.50      0.00      0.00      Open
  37                    7.50      0.01      0.00      Open
  38                    0.50      0.00      0.00      Open
  39                    7.00      0.01      0.00      Open
  40                    2.00      0.00      0.00      Open
  41                    1.50      0.00      0.00      Open
  太平窩38-7號              5.00      0.01      0.00      Open
  43                    4.50      0.01      0.00      Open
  44                    1.50      0.00      0.00      Open
  45                    3.00      0.00      0.00      Open
  46                    1.50      0.00      0.00      Open
  47                    1.50      0.00      0.00      Open
  48                    1.00      0.00      0.00      Open
  49                    0.50      0.00      0.00      Open
  50                    0.00      0.00      0.00    Closed


  Page 10                                                               
  Link Results at 1:00 Hrs: (continued)
  ----------------------------------------------------------------------
  Link                  Flow  VelocityUnit Headloss    Status
  ID                     CMD       m/s      m/km
  ----------------------------------------------------------------------
  51                    0.50      0.00      0.00      Open
  52                    0.50      0.00      0.00      Open
  57                    0.50      0.00      0.00      Open
  60                  898.05      0.33      0.95      Open
  61                  898.05      0.33      0.95      Open
  63                  898.05      0.33      0.95      Open
  64                  898.05      0.33      0.95      Open
  65                   27.01      0.04      0.04      Open
  42                    0.00      0.00      0.00    Closed
  62                    0.50      0.00      0.00      Open
  67                  898.05      0.33      0.95      Open
  68                 3340.38      1.23     10.86      Open
  69                    2.00      0.00      0.00      Open
  33                    2.50      0.00      0.00      Open
  53                    0.00      0.00      0.00    Closed
  59                   21.51      0.03      0.03      Open
  12                  275.57      0.10      0.11      Open
  22                    0.00      0.00      0.00    Closed
  23                   14.00      0.02      0.02      Open
  54                  898.05      0.33      0.95      Open
  56                   27.01      0.04      0.04      Open
  76                   16.50      0.02      0.02      Open
  77                   16.50      0.02      0.02      Open
  78                    9.50      0.01      0.01      Open
  79                    9.50      0.01      0.01      Open
  58                   24.00      0.04      0.03      Open
  66                   24.00      0.04      0.03      Open
  73                    0.00      0.00      0.00    Closed
  74                   26.50      0.04      0.04      Open
  80                   26.50      0.04      0.04      Open
  70                   20.50      0.03      0.04      Open
  81                   20.50      0.03      0.04      Open
  71                    1.00      0.00      0.00      Open
  抽水機1                277.57      0.00    -64.57      Open Pump
  抽水機2                898.05      0.00    -74.52      Open Pump
  減壓閥4                 16.50      0.02     27.99    Active Valve
  75                    9.50      0.01     41.99    Active Valve
  減壓閥2                 24.00      0.04     21.69    Active Valve
  減壓閥1                 26.50      0.04     16.31    Active Valve
  減3                   20.50      0.03     35.99    Active Valve
  


  Page 11                                                               
  Node Results at 2:00 Hrs:
  ----------------------------------------------------------------------
  Node                Demand      Head  Pressure   Quality
  ID                     CMD         m         m          
  ----------------------------------------------------------------------
  路口1                   0.00    295.70      9.98      0.00
  太平窩3-1號               5.00    295.70      9.98      0.00
  路口2                   2.50    295.66     17.46      0.00
  太平窩3號                 2.50    295.66     16.99      0.00
  路口3                   0.00    295.63     24.01      0.00
  太平窩3號(2)              2.50    295.63     20.12      0.00
  大平窩5號                 2.50    273.92     17.61      0.00
  土地公                   0.00    273.92     24.50      0.00
  太平窩12號                2.50    273.92     28.06      0.00
  路口5                   0.00    273.92     33.69      0.00
  太平窩12號(2)             5.00    273.91     46.08      0.00
  太平窩12-1號              2.50    273.91     36.02      0.00
  太平窩8、9號               5.00    273.88     45.08      0.00
  太平窩10號                2.50    238.00     14.77      0.00
  太平窩15-1號              2.50    237.91     20.28      0.00
  路口6                   0.00    237.91     24.65      0.00
  太平窩15號                2.50    237.91     31.31      0.00
  太平窩16號                2.50    237.91     35.35      0.00
  太平窩15號(2)             2.50    237.91     37.63      0.00
  路口7                   0.00    237.88     35.00      0.00
  太平窩18號                5.00    237.88     37.91      0.00
  太平窩17-1號              2.50    237.88     49.20      0.00
  太平窩19號                2.50    209.90     39.31      0.00
  太平窩20號、橋頭             2.50    209.90     41.59      0.00
  太平窩19-8號              2.50    209.90     36.95      0.00
  太平窩23-3號              2.50    209.90     38.61      0.00
  太平窩23-2號              2.50    209.89     39.90      0.00
  大平窩29-1號              2.50    209.88     44.77      0.00
  2鄰太平窩16號              2.50    209.88     44.04      0.00
  2鄰太平窩27號              2.50    209.88     45.96      0.00
  太平窩29號                2.50    209.88     47.67      0.00
  太平窩29號(2)             5.00    209.88     47.68      0.00
  3鄰太平窩25號              2.50    209.88     33.67      0.00
  太平窩38號                2.50    167.99     14.26      0.00
  路口9                   0.00    167.99     16.00      0.00
  太平窩32、-1號             5.00    167.99     16.21      0.00
  路口10                  0.00    167.99     21.70      0.00
  太平窩34-1號              2.50    167.99     16.19      0.00
  路口11                  0.00    167.97     26.74      0.00
  太平窩37號                2.50    167.97     12.33      0.00
  路口13                  0.00    167.96     29.79      0.00
  太平窩43、43-1、-2號        7.50    167.96     28.30      0.00
  38-7號                 2.50    167.96     28.38      0.00
  路口12                  0.00    167.97     26.74      0.00
  4鄰太平窩38號              2.50    167.97     19.55      0.00
  太平窩39，41號             5.00    167.97     16.31      0.00
  路口14                  0.00    167.96     33.07      0.00


  Page 12                                                               
  Node Results at 2:00 Hrs: (continued)
  ----------------------------------------------------------------------
  Node                Demand      Head  Pressure   Quality
  ID                     CMD         m         m          
  ----------------------------------------------------------------------
  6鄰太平窩47-1號            2.50    167.96     36.95      0.00
  5鄰太平窩50號              2.50    167.96     43.25      0.00
  6鄰太平窩59-1號            2.50    167.96     44.59      0.00
  太平窩49、50號             7.50    167.96     30.04      0.00
  太平窩1號                 2.50    312.31     10.81      0.00
  變電站路口                 7.50    240.27     72.43      0.00
  變電站                   2.50    240.27     37.59      0.00
  路口                    0.00    314.11     15.79      0.00
  54                    0.00    313.45     11.80      0.00
  55                    0.00    313.21     10.24      0.00
  3鄰14號                 0.00    312.93     27.21      0.00
  減壓池路口                 0.00    209.90     38.61      0.00
  40號                   2.50    167.97     19.09      0.00
  水池加壓1                 0.00    240.27     66.27      0.00
  配水池2加壓                0.00    315.11     75.91      0.00
  減壓池前                  0.00    209.90     38.61      0.00
  1                     0.00    312.40      3.40      0.00
  4                     0.00    312.57      3.57      0.00
  6                     0.00    237.88     37.88      0.00
  7                     0.00    210.00     10.00      0.00
  8                     0.00    209.87     51.87      0.00
  9                     0.00    168.00     10.00      0.00
  2                     0.00    295.54     31.54      0.00
  3                     0.00    274.00     10.00      0.00
  11                    0.00    312.26     26.56      0.00
  12                    0.00    295.70     10.00      0.00
  13                    0.00    273.88     45.88      0.00
  14                    0.00    238.00     10.00      0.00
  大平窩22-1、23號           5.00    209.90     42.90      0.00
  祥喜1加壓站            -3340.38    192.00      0.00      0.00 Reservoir
  配水池2               -620.32    240.17      0.97      0.00 Tank
  配水池(土地公)           3062.72    175.72      3.50      0.00 Tank
  配水池3                752.97    312.48      3.41      0.00 Tank
  減壓池                   0.00    173.55      2.00      0.00 Tank
  
  Link Results at 2:00 Hrs:
  ----------------------------------------------------------------------
  Link                  Flow  VelocityUnit Headloss    Status
  ID                     CMD       m/s      m/km
  ----------------------------------------------------------------------
  1                     5.00      0.01      0.00      Open
  2                   127.51      0.19      0.75      Open
  3                   122.51      0.18      0.70      Open
  4                     2.50      0.00      0.00      Open
  5                     2.50      0.00      0.00      Open
  6                     0.00      0.00      0.00    Closed
  7                    10.00      0.01      0.01      Open


  Page 13                                                               
  Link Results at 2:00 Hrs: (continued)
  ----------------------------------------------------------------------
  Link                  Flow  VelocityUnit Headloss    Status
  ID                     CMD       m/s      m/km
  ----------------------------------------------------------------------
  8                    10.00      0.01      0.01      Open
  9                     7.50      0.01      0.00      Open
  10                    2.50      0.00      0.00      Open
  11                    5.00      0.01      0.00      Open
  13                    0.00      0.00      0.00    Closed
  14                  100.01      0.15      0.48      Open
  15                   90.01      0.13      0.39      Open
  17                   10.00      0.01      0.01      Open
  18                    7.50      0.01      0.00      Open
  19                    2.50      0.00      0.00      Open
  20                    7.50      0.01      0.00      Open
  21                    2.50      0.00      0.00      Open
  減壓池前                 12.50      0.02      0.01      Open
  24                    2.50      0.00      0.00      Open
  25                    2.50      0.00      0.00      Open
  26                   67.50      0.10      0.23      Open
  27                   65.00      0.10      0.22      Open
  28                   10.00      0.01      0.01      Open
  29                    7.50      0.01      0.00      Open
  30                    5.00      0.01      0.00      Open
  31                    2.50      0.00      0.00      Open
  32                    0.00      0.00      0.00    Closed
  線                     5.00      0.01      0.00      Open
  34                    2.50      0.00      0.00      Open
  35                   40.00      0.06      0.09      Open
  36                    2.50      0.00      0.00      Open
  37                   37.50      0.06      0.08      Open
  38                    2.50      0.00      0.00      Open
  39                   35.00      0.05      0.07      Open
  40                   10.00      0.01      0.01      Open
  41                    7.50      0.01      0.00      Open
  太平窩38-7號             25.00      0.04      0.04      Open
  43                   22.50      0.03      0.03      Open
  44                    7.50      0.01      0.00      Open
  45                   15.00      0.02      0.01      Open
  46                    7.50      0.01      0.00      Open
  47                    7.50      0.01      0.00      Open
  48                    5.00      0.01      0.00      Open
  49                    2.50      0.00      0.00      Open
  50                    0.00      0.00      0.00    Closed
  51                    2.50      0.00      0.00      Open
  52                    2.50      0.00      0.00      Open
  57                    2.50      0.01      0.00      Open
  60                  887.97      0.33      0.93      Open
  61                  887.97      0.33      0.93      Open
  63                  887.97      0.33      0.93      Open
  64                  887.97      0.33      0.93      Open


  Page 14                                                               
  Link Results at 2:00 Hrs: (continued)
  ----------------------------------------------------------------------
  Link                  Flow  VelocityUnit Headloss    Status
  ID                     CMD       m/s      m/km
  ----------------------------------------------------------------------
  65                  135.01      0.20      0.83      Open
  42                    0.00      0.00      0.00    Closed
  62                    2.50      0.00      0.00      Open
  67                  887.97      0.33      0.93      Open
  68                 3340.38      1.23     10.86      Open
  69                   10.00      0.00      0.00      Open
  33                   12.50      0.02      0.01      Open
  53                    0.00      0.00      0.00    Closed
  59                  107.51      0.16      0.55      Open
  12                  267.66      0.10      0.10      Open
  22                    0.00      0.00      0.00    Closed
  23                   70.00      0.10      0.24      Open
  54                  887.97      0.33      0.93      Open
  56                  135.01      0.20      0.83      Open
  76                   82.50      0.12      0.33      Open
  77                   82.50      0.12      0.34      Open
  78                   47.50      0.07      0.12      Open
  79                   47.50      0.07      0.12      Open
  58                  120.00      0.18      0.67      Open
  66                  120.00      0.18      0.67      Open
  73                    0.00      0.00      0.00    Closed
  74                  132.50      0.20      0.81      Open
  80                  132.50      0.20      0.80      Open
  70                  102.50      0.15      0.48      Open
  81                  102.50      0.15      0.50      Open
  71                    5.00      0.01      0.00      Open
  抽水機1                277.66      0.00    -64.55      Open Pump
  抽水機2                887.97      0.00    -74.94      Open Pump
  減壓閥4                 82.50      0.12     27.88    Active Valve
  75                   47.50      0.07     41.87    Active Valve
  減壓閥2                120.00      0.18     21.54    Active Valve
  減壓閥1                132.50      0.20     16.56    Active Valve
  減3                  102.50      0.15     35.88    Active Valve
  
  Node Results at 3:00 Hrs:
  ----------------------------------------------------------------------
  Node                Demand      Head  Pressure   Quality
  ID                     CMD         m         m          
  ----------------------------------------------------------------------
  路口1                   0.00    295.70      9.98      0.00
  太平窩3-1號               2.00    295.70      9.98      0.00
  路口2                   1.00    295.69     17.49      0.00
  太平窩3號                 1.00    295.69     17.02      0.00
  路口3                   0.00    295.69     24.07      0.00
  太平窩3號(2)              1.00    295.69     20.18      0.00
  大平窩5號                 1.00    273.98     17.67      0.00
  土地公                   0.00    273.98     24.57      0.00


  Page 15                                                               
  Node Results at 3:00 Hrs: (continued)
  ----------------------------------------------------------------------
  Node                Demand      Head  Pressure   Quality
  ID                     CMD         m         m          
  ----------------------------------------------------------------------
  太平窩12號                1.00    273.98     28.13      0.00
  路口5                   0.00    273.98     33.76      0.00
  太平窩12號(2)             2.00    273.98     46.15      0.00
  太平窩12-1號              1.00    273.98     36.09      0.00
  太平窩8、9號               2.00    273.98     45.18      0.00
  太平窩10號                1.00    238.00     14.77      0.00
  太平窩15-1號              1.00    237.98     20.35      0.00
  路口6                   0.00    237.98     24.72      0.00
  太平窩15號                1.00    237.98     31.38      0.00
  太平窩16號                1.00    237.98     35.42      0.00
  太平窩15號(2)             1.00    237.98     37.70      0.00
  路口7                   0.00    237.98     35.10      0.00
  太平窩18號                2.00    237.98     38.01      0.00
  太平窩17-1號              1.00    237.98     49.29      0.00
  太平窩19號                1.00    209.98     39.39      0.00
  太平窩20號、橋頭             1.00    209.98     41.67      0.00
  太平窩19-8號              1.00    209.98     37.03      0.00
  太平窩23-3號              1.00    209.98     38.69      0.00
  太平窩23-2號              1.00    209.98     39.99      0.00
  大平窩29-1號              1.00    209.98     44.87      0.00
  2鄰太平窩16號              1.00    209.98     44.15      0.00
  2鄰太平窩27號              1.00    209.98     46.06      0.00
  太平窩29號                1.00    209.98     47.77      0.00
  太平窩29號(2)             2.00    209.98     47.78      0.00
  3鄰太平窩25號              1.00    209.98     33.78      0.00
  太平窩38號                1.00    168.00     14.26      0.00
  路口9                   0.00    168.00     16.01      0.00
  太平窩32、-1號             2.00    168.00     16.22      0.00
  路口10                  0.00    168.00     21.71      0.00
  太平窩34-1號              1.00    168.00     16.20      0.00
  路口11                  0.00    167.99     26.76      0.00
  太平窩37號                1.00    167.99     12.36      0.00
  路口13                  0.00    167.99     29.83      0.00
  太平窩43、43-1、-2號        3.00    167.99     28.33      0.00
  38-7號                 1.00    167.99     28.41      0.00
  路口12                  0.00    167.99     26.77      0.00
  4鄰太平窩38號              1.00    167.99     19.58      0.00
  太平窩39，41號             2.00    167.99     16.33      0.00
  路口14                  0.00    167.99     33.11      0.00
  6鄰太平窩47-1號            1.00    167.99     36.98      0.00
  5鄰太平窩50號              1.00    167.99     43.29      0.00
  6鄰太平窩59-1號            1.00    167.99     44.63      0.00
  太平窩49、50號             3.00    167.99     30.07      0.00
  太平窩1號                 1.00    312.85     11.34      0.00
  變電站路口                 3.00    240.26     72.42      0.00
  變電站                   1.00    240.26     37.58      0.00
  路口                    0.00    314.48     16.16      0.00


  Page 16                                                               
  Node Results at 3:00 Hrs: (continued)
  ----------------------------------------------------------------------
  Node                Demand      Head  Pressure   Quality
  ID                     CMD         m         m          
  ----------------------------------------------------------------------
  54                    0.00    313.83     12.18      0.00
  55                    0.00    313.60     10.63      0.00
  3鄰14號                 0.00    313.32     27.60      0.00
  減壓池路口                 0.00    209.98     38.69      0.00
  40號                   1.00    167.99     19.12      0.00
  水池加壓1                 0.00    240.26     66.26      0.00
  配水池2加壓                0.00    315.46     76.26      0.00
  減壓池前                  0.00    209.98     38.69      0.00
  1                     0.00    312.87      3.87      0.00
  4                     0.00    312.97      3.97      0.00
  6                     0.00    237.98     37.98      0.00
  7                     0.00    210.00     10.00      0.00
  8                     0.00    209.98     51.98      0.00
  9                     0.00    168.00     10.00      0.00
  2                     0.00    295.67     31.67      0.00
  3                     0.00    274.00     10.00      0.00
  11                    0.00    312.84     27.14      0.00
  12                    0.00    295.70     10.00      0.00
  13                    0.00    273.98     45.98      0.00
  14                    0.00    238.00     10.00      0.00
  大平窩22-1、23號           2.00    209.98     42.98      0.00
  祥喜1加壓站            -3340.38    192.00      0.00      0.00 Reservoir
  配水池2               -605.44    240.16      0.96      0.00 Tank
  配水池(土地公)           3062.68    175.72      3.50      0.00 Tank
  配水池3                825.13    312.88      3.81      0.00 Tank
  減壓池                   0.00    173.55      2.00      0.00 Tank
  
  Link Results at 3:00 Hrs:
  ----------------------------------------------------------------------
  Link                  Flow  VelocityUnit Headloss    Status
  ID                     CMD       m/s      m/km
  ----------------------------------------------------------------------
  1                     2.00      0.00      0.00      Open
  2                    51.01      0.08      0.14      Open
  3                    49.01      0.07      0.13      Open
  4                     1.00      0.00      0.00      Open
  5                     1.00      0.00      0.00      Open
  6                     0.00      0.00      0.00    Closed
  7                     4.00      0.01      0.00      Open
  8                     4.00      0.01      0.00      Open
  9                     3.00      0.00      0.00      Open
  10                    1.00      0.00      0.00      Open
  11                    2.00      0.00      0.00      Open
  13                    0.00      0.00      0.00    Closed
  14                   40.01      0.06      0.09      Open
  15                   36.01      0.05      0.07      Open
  17                    4.00      0.01      0.00      Open


  Page 17                                                               
  Link Results at 3:00 Hrs: (continued)
  ----------------------------------------------------------------------
  Link                  Flow  VelocityUnit Headloss    Status
  ID                     CMD       m/s      m/km
  ----------------------------------------------------------------------
  18                    3.00      0.00      0.00      Open
  19                    1.00      0.00      0.00      Open
  20                    3.00      0.00      0.00      Open
  21                    1.00      0.00      0.00      Open
  減壓池前                  5.00      0.01      0.00      Open
  24                    1.00      0.00      0.00      Open
  25                    1.00      0.00      0.00      Open
  26                   27.00      0.04      0.04      Open
  27                   26.00      0.04      0.04      Open
  28                    4.00      0.01      0.00      Open
  29                    3.00      0.00      0.00      Open
  30                    2.00      0.00      0.00      Open
  31                    1.00      0.00      0.00      Open
  32                    0.00      0.00      0.00    Closed
  線                     2.00      0.00      0.00      Open
  34                    1.00      0.00      0.00      Open
  35                   16.00      0.02      0.02      Open
  36                    1.00      0.00      0.00      Open
  37                   15.00      0.02      0.01      Open
  38                    1.00      0.00      0.00      Open
  39                   14.00      0.02      0.01      Open
  40                    4.00      0.01      0.00      Open
  41                    3.00      0.00      0.00      Open
  太平窩38-7號             10.00      0.01      0.01      Open
  43                    9.00      0.01      0.01      Open
  44                    3.00      0.00      0.00      Open
  45                    6.00      0.01      0.00      Open
  46                    3.00      0.00      0.00      Open
  47                    3.00      0.00      0.00      Open
  48                    2.00      0.00      0.00      Open
  49                    1.00      0.00      0.00      Open
  50                    0.00      0.00      0.00    Closed
  51                    1.00      0.00      0.00      Open
  52                    1.00      0.00      0.00      Open
  57                    1.00      0.00      0.00      Open
  60                  879.14      0.32      0.92      Open
  61                  879.14      0.32      0.92      Open
  63                  879.14      0.32      0.92      Open
  64                  879.14      0.32      0.92      Open
  65                   54.01      0.08      0.15      Open
  42                    0.00      0.00      0.00    Closed
  62                    1.00      0.00      0.00      Open
  67                  879.14      0.32      0.92      Open
  68                 3340.38      1.23     10.86      Open
  69                    4.00      0.00      0.00      Open
  33                    5.00      0.01      0.00      Open
  53                    0.00      0.00      0.00    Closed


  Page 18                                                               
  Link Results at 3:00 Hrs: (continued)
  ----------------------------------------------------------------------
  Link                  Flow  VelocityUnit Headloss    Status
  ID                     CMD       m/s      m/km
  ----------------------------------------------------------------------
  59                   43.01      0.06      0.10      Open
  12                  273.70      0.10      0.11      Open
  22                    0.00      0.00      0.00    Closed
  23                   28.00      0.04      0.04      Open
  54                  879.14      0.32      0.92      Open
  56                   54.01      0.08      0.15      Open
  76                   33.00      0.05      0.06      Open
  77                   33.00      0.05      0.06      Open
  78                   19.00      0.03      0.02      Open
  79                   19.00      0.03      0.02      Open
  58                   48.00      0.07      0.12      Open
  66                   48.00      0.07      0.12      Open
  73                    0.00      0.00      0.00    Closed
  74                   53.00      0.08      0.15      Open
  80                   53.00      0.08      0.15      Open
  70                   41.00      0.06      0.09      Open
  81                   41.00      0.06      0.09      Open
  71                    2.00      0.00      0.00      Open
  抽水機1                277.70      0.00    -64.54      Open Pump
  抽水機2                879.14      0.00    -75.30      Open Pump
  減壓閥4                 33.00      0.05     27.98    Active Valve
  75                   19.00      0.03     41.98    Active Valve
  減壓閥2                 48.00      0.07     21.67    Active Valve
  減壓閥1                 53.00      0.08     17.14    Active Valve
  減3                   41.00      0.06     35.98    Active Valve
  
