  Page 1                                          2025/10/31 ¤W¤È 06:33:06
  **********************************************************************
  *                             E P A N E T                            *
  *                     Hydraulic and Water Quality                    *
  *                     Analysis for Pipe Networks                     *
  *                           Version 2.2                              *
  **********************************************************************
  
  Input File: EX1.net
  
  
  
  Link - Node Table:
  ----------------------------------------------------------------------
  Link           Start          End                Length  Diameter
  ID             Node           Node                    m        mm
  ----------------------------------------------------------------------
  1              1              2                     600       200
  2              2              3                     500       200
  3              3              7                     700       200
  4              2              6                     450       100
  5              2              4                     350       100
  6              4              5                     500       100
  7              5              3                     350       100
  8              5              7                     550       100
  
  Node Results at 0:00 Hrs:
  ----------------------------------------------------------------------
  Node                Demand      Head  Pressure   Quality
  ID                     CMD         m         m          
  ----------------------------------------------------------------------
  2                   150.00     93.91     38.91      0.00
  3                   100.00     93.43     34.43      0.00
  4                    50.00     93.53     30.53      0.00
  5                   100.00     93.28     16.28      0.00
  6                    75.00     93.78     25.78      0.00
  7                   800.00     93.01      9.01      0.00
  1                 -1275.00     95.00      0.00      0.00 Reservoir
  
  Link Results at 0:00 Hrs:
  ----------------------------------------------------------------------
  Link                  Flow  VelocityUnit Headloss    Status
  ID                     CMD       m/s      m/km
  ----------------------------------------------------------------------
  1                  1275.00      0.47      1.82      Open
  2                   895.95      0.33      0.95      Open
  3                   699.75      0.26      0.60      Open
  4                    75.00      0.11      0.28      Open
  5                   154.05      0.23      1.07      Open
  6                   104.05      0.15      0.52      Open
  7                   -96.20      0.14      0.45      Open
  8                   100.25      0.15      0.48      Open
  


  Page 2                                                                
  Node Results at 1:00 Hrs:
  ----------------------------------------------------------------------
  Node                Demand      Head  Pressure   Quality
  ID                     CMD         m         m          
  ----------------------------------------------------------------------
  2                   150.00     93.91     38.91      0.00
  3                   100.00     93.43     34.43      0.00
  4                    50.00     93.53     30.53      0.00
  5                   100.00     93.28     16.28      0.00
  6                    75.00     93.78     25.78      0.00
  7                   800.00     93.01      9.01      0.00
  1                 -1275.00     95.00      0.00      0.00 Reservoir
  
  Link Results at 1:00 Hrs:
  ----------------------------------------------------------------------
  Link                  Flow  VelocityUnit Headloss    Status
  ID                     CMD       m/s      m/km
  ----------------------------------------------------------------------
  1                  1275.00      0.47      1.82      Open
  2                   895.95      0.33      0.95      Open
  3                   699.75      0.26      0.60      Open
  4                    75.00      0.11      0.28      Open
  5                   154.05      0.23      1.07      Open
  6                   104.05      0.15      0.52      Open
  7                   -96.20      0.14      0.45      Open
  8                   100.25      0.15      0.48      Open
  
  Node Results at 2:00 Hrs:
  ----------------------------------------------------------------------
  Node                Demand      Head  Pressure   Quality
  ID                     CMD         m         m          
  ----------------------------------------------------------------------
  2                   150.00     93.91     38.91      0.00
  3                   100.00     93.43     34.43      0.00
  4                    50.00     93.53     30.53      0.00
  5                   100.00     93.28     16.28      0.00
  6                    75.00     93.78     25.78      0.00
  7                   800.00     93.01      9.01      0.00
  1                 -1275.00     95.00      0.00      0.00 Reservoir
  
  Link Results at 2:00 Hrs:
  ----------------------------------------------------------------------
  Link                  Flow  VelocityUnit Headloss    Status
  ID                     CMD       m/s      m/km
  ----------------------------------------------------------------------
  1                  1275.00      0.47      1.82      Open
  2                   895.95      0.33      0.95      Open
  3                   699.75      0.26      0.60      Open
  4                    75.00      0.11      0.28      Open
  5                   154.05      0.23      1.07      Open
  6                   104.05      0.15      0.52      Open
  7                   -96.20      0.14      0.45      Open


  Page 3                                                                
  Link Results at 2:00 Hrs: (continued)
  ----------------------------------------------------------------------
  Link                  Flow  VelocityUnit Headloss    Status
  ID                     CMD       m/s      m/km
  ----------------------------------------------------------------------
  8                   100.25      0.15      0.48      Open
  
  Node Results at 3:00 Hrs:
  ----------------------------------------------------------------------
  Node                Demand      Head  Pressure   Quality
  ID                     CMD         m         m          
  ----------------------------------------------------------------------
  2                   150.00     93.91     38.91      0.00
  3                   100.00     93.43     34.43      0.00
  4                    50.00     93.53     30.53      0.00
  5                   100.00     93.28     16.28      0.00
  6                    75.00     93.78     25.78      0.00
  7                   800.00     93.01      9.01      0.00
  1                 -1275.00     95.00      0.00      0.00 Reservoir
  
  Link Results at 3:00 Hrs:
  ----------------------------------------------------------------------
  Link                  Flow  VelocityUnit Headloss    Status
  ID                     CMD       m/s      m/km
  ----------------------------------------------------------------------
  1                  1275.00      0.47      1.82      Open
  2                   895.95      0.33      0.95      Open
  3                   699.75      0.26      0.60      Open
  4                    75.00      0.11      0.28      Open
  5                   154.05      0.23      1.07      Open
  6                   104.05      0.15      0.52      Open
  7                   -96.20      0.14      0.45      Open
  8                   100.25      0.15      0.48      Open
  
