  Page 1                                           2025/3/23 下午 03:33:10
  **********************************************************************
  *                             E P A N E T                            *
  *                     Hydraulic and Water Quality                    *
  *                     Analysis for Pipe Networks                     *
  *                           Version 2.2                              *
  **********************************************************************
  
  Input File: 測試延管工程-no-pattern.inp
  
  
  
  Link - Node Table:
  ----------------------------------------------------------------------
  Link           Start          End                Length  Diameter
  ID             Node           Node                    m        mm
  ----------------------------------------------------------------------
  2              1              2                     268       100
  3              2              3                     314       100
  4              3              5                     513       100
  5              2              4                     357       100
  7              3              8                     234       100
  1              6              1                    #N/A      #N/A Pump
  6              3              7                    #N/A       100 Valve
  
  Energy Usage:
  ----------------------------------------------------------------------
                    Usage   Avg.     Kw-hr      Avg.      Peak      Cost
  Pump             Factor Effic.     /m3        Kw        Kw      /day
  ----------------------------------------------------------------------
  1                100.00  75.00      0.22      0.54      0.54      0.00
  ----------------------------------------------------------------------
                                                Demand Charge:      0.00
                                                Total Cost:         0.00
  
  Node Results:
  ----------------------------------------------------------------------
  Node                Demand      Head  Pressure   Quality
  ID                     CMD         m         m          
  ----------------------------------------------------------------------
  1                     0.00     90.08     60.08      0.00
  2                    10.00     90.02     30.02      0.00
  3                    10.00     90.00     60.00      0.00
  4                    20.00     90.01     30.01      0.00
  7                     0.00     14.00      4.00      0.00
  8                    20.00     89.99     89.99      0.00
  6                   -59.89     30.00      0.00      0.00 Reservoir
  5                    -0.11     90.00     10.00      0.00 Tank
  


  Page 2                                                                
  Link Results:
  ----------------------------------------------------------------------
  Link                  Flow  VelocityUnit Headloss    Status
  ID                     CMD       m/s      m/km
  ----------------------------------------------------------------------
  2                    59.89      0.09      0.22      Open
  3                    29.89      0.04      0.05      Open
  4                    -0.11      0.00      0.00      Open
  5                    20.00      0.03      0.03      Open
  7                    20.00      0.03      0.03      Open
  1                    59.89      0.00    -60.08      Open Pump
  6                     0.00      0.00     76.00    Active Valve
  
