  Page 1                                          2024/11/28 ¤U¤È 05:27:17
  **********************************************************************
  *                             E P A N E T                            *
  *                     Hydraulic and Water Quality                    *
  *                     Analysis for Pipe Networks                     *
  *                           Version 2.2                              *
  **********************************************************************
  
  Input File: SinglePattern2.net
  
  
  
  Link - Node Table:
  ----------------------------------------------------------------------
  Link           Start          End                Length  Diameter
  ID             Node           Node                   ft        in
  ----------------------------------------------------------------------
  2              1              2                    1000        12
  3              2              3                    1000        12
  4              3              5                    1000        12
  5              2              4                    1000        12
  1              6              1                    #N/A      #N/A Pump
  
  Energy Usage:
  ----------------------------------------------------------------------
                    Usage   Avg.     Kw-hr      Avg.      Peak      Cost
  Pump             Factor Effic.     /Mgal        Kw        Kw      /day
  ----------------------------------------------------------------------
  1                100.00  75.00    251.61      0.90      0.90      0.00
  ----------------------------------------------------------------------
                                                Demand Charge:      0.00
                                                Total Cost:         0.00
  
  Node Results:
  ----------------------------------------------------------------------
  Node                Demand      Head  Pressure   Quality
  ID                     GPM        ft       psi          
  ----------------------------------------------------------------------
  1                     0.00     90.07     39.03      0.00
  2                     0.00     90.04     13.02      0.00
  3                     0.00     90.02     26.01      0.00
  4                     0.00     90.04     26.02      0.00
  6                   -59.90     30.00      0.00      0.00 Reservoir
  5                    59.90     90.00      4.33      0.00 Tank
  


  Page 2                                                                
  Link Results:
  ----------------------------------------------------------------------
  Link                  Flow  VelocityUnit Headloss    Status
  ID                     GPM       fps    ft/Kft
  ----------------------------------------------------------------------
  2                    59.90      0.17      0.02      Open
  3                    59.90      0.17      0.02      Open
  4                    59.90      0.17      0.02      Open
  5                     0.00      0.00      0.00      Open
  1                    59.90      0.00    -60.07      Open Pump
  
