  Page 1                                           2025/8/28 上午 09:00:21
  **********************************************************************
  *                             E P A N E T                            *
  *                     Hydraulic and Water Quality                    *
  *                     Analysis for Pipe Networks                     *
  *                           Version 2.2                              *
  **********************************************************************
  
  Input File: 測試延管工程-3-patterns.inp
  
  
  
  Link - Node Table:
  ----------------------------------------------------------------------
  Link           Start          End                Length  Diameter
  ID             Node           Node                    m        mm
  ----------------------------------------------------------------------
  2              1              2                     268       100
  3              2              3                     314       100
  4              3              5                     513       100
  5              2              4                     357        10
  1              6              1                    #N/A      #N/A Pump
  6              3              7                    #N/A       100 Valve
  
  Energy Usage:
  ----------------------------------------------------------------------
                    Usage   Avg.     Kw-hr      Avg.      Peak      Cost
  Pump             Factor Effic.     /m3        Kw        Kw      /day
  ----------------------------------------------------------------------
  1                100.00  75.00      0.22      0.54      0.54      0.00
  ----------------------------------------------------------------------
                                                Demand Charge:      0.00
                                                Total Cost:         0.00
  
  Node Results:
  ----------------------------------------------------------------------
  Node                Demand      Head  Pressure   Quality
  ID                     CMD         m         m          
  ----------------------------------------------------------------------
  1                     0.00     90.13     60.13      0.00
  2                     6.00     90.07     30.07      0.00
  3                     6.00     90.04     60.04      0.00
  4                    12.00   -208.41   -268.41      0.00
  7                     0.00     14.00      4.00      0.00
  6                   -59.80     30.00      0.00      0.00 Reservoir
  5                    35.80     90.00     10.00      0.00 Tank
  


  Page 2                                                                
  Link Results:
  ----------------------------------------------------------------------
  Link                  Flow  VelocityUnit Headloss    Status
  ID                     CMD       m/s      m/km
  ----------------------------------------------------------------------
  2                    59.80      0.09      0.22      Open
  3                    41.80      0.06      0.10      Open
  4                    35.80      0.05      0.09      Open
  5                    12.00      1.77    836.08      Open
  1                    59.80      0.00    -60.13      Open Pump
  6                     0.00      0.00     76.04    Active Valve
  
