  Page 1                                          2024/11/25 ¤U¤È 08:15:07
  **********************************************************************
  *                             E P A N E T                            *
  *                     Hydraulic and Water Quality                    *
  *                     Analysis for Pipe Networks                     *
  *                           Version 2.2                              *
  **********************************************************************
  
  Input File: test.inp
  
  
  
  Link - Node Table:
  ----------------------------------------------------------------------
  Link           Start          End                Length  Diameter
  ID             Node           Node                    m        mm
  ----------------------------------------------------------------------
  1              7              2                    1313       100
  2              5              3                     342       200
  4              1              8                     374       100
  3              1              2                     535       200
  5              7              4                     324        12
  6              9              6                     342        12
  9              12             13                    424        12
  10             13             11                    263        12
  11             15             12                    225        12
  12             10             14                    356        12
  13             21             20                    327        12
  14             20             18                   3689        12
  15             18             19                    458        12
  16             19             17                    428        12
  17             17             16                     74        12
  18             22             21                    462        12
  19             30             23                    470        12
  20             23             26                    169        12
  21             23             24                    469        12
  22             24             25                   9764        12
  23             23             29                    369        12
  25             28             27                    247        12
  26             31             30                    569        12
  27             19             32                     26        12
  28             32             33                   2436        12
  30             25             34                    852        12
  31             33             34                   4376        12
  32             35             20                    124        12
  33             36             32                    468        12
  34             33             37                   4376        12
  35             37             38                    124        12
  24             29             28                   5425        12
  7              4              9                    #N/A      #N/A Pump
  8              14             15                   #N/A      #N/A Pump
  


  Page 2                                                                
  Energy Usage:
  ----------------------------------------------------------------------
                    Usage   Avg.     Kw-hr      Avg.      Peak      Cost
  Pump             Factor Effic.     /m3        Kw        Kw      /day
  ----------------------------------------------------------------------
  7                100.00  75.00      0.38      0.10      0.10      0.00
  8                100.00  75.00      0.36      0.24      0.24      0.00
  ----------------------------------------------------------------------
                                                Demand Charge:      0.00
                                                Total Cost:         0.00
  
  Node Results:
  ----------------------------------------------------------------------
  Node                Demand      Head  Pressure   Quality
  ID                     CMD         m         m          
  ----------------------------------------------------------------------
  1                    20.00     60.39     40.39      0.00
  2                    20.00     60.32     25.32      0.00
  3                    30.00     55.00     35.00      0.00
  4                     0.00     21.24      1.24      0.00
  9                     0.00    126.69    106.69      0.00
  12                   20.00   -234.71   -294.71      0.00
  13                   20.00   -218.42   -298.42      0.00
  14                    0.00   -196.59   -216.59      0.00
  15                    0.00    -97.82   -117.82      0.00
  16                    2.00 -20073.91 -20143.91      0.00
  17                    2.00 -20072.99 -20132.99      0.00
  18                    2.00 -18359.20 -18399.20      0.00
  19                    2.00 -20053.74 -20108.74      0.00
  20                    2.00  -3519.13  -3549.13      0.00
  21                    2.00  -2094.04  -2119.04      0.00
  23                    6.00 -14602.91 -14626.91      0.00
  24                    5.00 -15046.83 -15082.83      0.00
  25                    5.00 -20589.58 -20636.58      0.00
  26                    0.00 -14602.91 -14602.91      0.00
  27                    3.00 -16097.35 -16187.35      0.00
  28                    3.00 -16090.83 -16160.83      0.00
  29                   30.00 -15573.89 -15619.89      0.00
  30                   44.00 -11144.36 -11190.36      0.00
  32                   20.00 -20126.70 -20131.70      0.00
  33                   10.00 -21000.34 -21008.34      0.00
  34                    7.00 -20827.70 -20881.70      0.00
  35                    0.00  -3519.13  -3519.13      0.00
  36                    5.00 -20158.52 -20208.52      0.00
  37                    4.00 -21417.33 -21467.33      0.00
  38                    2.00 -21418.87 -21478.87      0.00
  7                   251.13     56.00      0.00      0.00 Reservoir
  8                  -297.53     62.00      0.00      0.00 Reservoir
  10                  -16.33     20.00      0.00      0.00 Reservoir
  22                  -49.27     80.00      0.00      0.00 Reservoir
  31                 -106.73     60.00      0.00      0.00 Reservoir
  5                   -30.00     55.00     10.00      0.00 Tank


  Page 3                                                                
  Node Results: (continued)
  ----------------------------------------------------------------------
  Node                Demand      Head  Pressure   Quality
  ID                     CMD         m         m          
  ----------------------------------------------------------------------
  6                     6.40     90.00     10.00      0.00 Tank
  11                  -23.67    100.00     10.00      0.00 Tank
  
  Link Results:
  ----------------------------------------------------------------------
  Link                  Flow  VelocityUnit Headloss    Status
  ID                     CMD       m/s      m/km
  ----------------------------------------------------------------------
  1                  -257.53      0.38      3.29      Open
  2                    30.00      0.01      0.00      Open
  4                  -297.53      0.44      4.30      Open
  3                   277.53      0.10      0.13      Open
  5                     6.40      0.65    107.29      Open
  6                     6.40      0.65    107.29      Open
  9                    -3.67      0.38     38.41      Open
  10                  -23.67      2.42   1210.73      Open
  11                   16.33      1.67    608.40      Open
  12                   16.33      1.67    608.40      Open
  13                   47.27      4.84   4358.09      Open
  14                   45.27      4.63   4022.79      Open
  15                   43.27      4.43   3699.87      Open
  16                    4.00      0.41     44.97      Open
  17                    2.00      0.20     12.45      Open
  18                   49.27      5.04   4705.70      Open
  19                   62.73      6.42   7358.61      Open
  20                    0.00      0.00      0.00      Open
  21                   20.73      2.12    946.53      Open
  22                   15.73      1.61    567.67      Open
  23                   36.00      3.68   2631.38      Open
  25                    3.00      0.31     26.40      Open
  26                  106.73     10.92  19691.32      Open
  27                   37.27      3.81   2806.30      Open
  28                   12.27      1.26    358.64      Open
  30                   10.73      1.10    279.48      Open
  31                   -3.73      0.38     39.45      Open
  32                    0.00      0.00      0.00      Open
  33                   -5.00      0.51     67.99      Open
  34                    6.00      0.61     95.29      Open
  35                    2.00      0.20     12.46      Open
  24                    6.00      0.61     95.29      Open
  7                     6.40      0.00   -105.45      Open Pump
  8                    16.33      0.00    -98.77      Open Pump
  
