  Page 1                                    Wed Oct 15 19:04:35 2025

  ******************************************************************
  *                           E P A N E T                          *
  *                   Hydraulic and Water Quality                  *
  *                   Analysis for Pipe Networks                   *
  *                         Version 2.00.12                        *
  ******************************************************************
  
   
      Input Data File ................... C:/Users/user/Downloads/Google Drive/attach-50238685/¤ô¨ó/QEPANET_test.inp
      Number of Junctions................ 19
      Number of Reservoirs............... 1
      Number of Tanks ................... 0
      Number of Pipes ................... 19
      Number of Pumps ................... 0
      Number of Valves .................. 0
      Headloss Formula .................. Hazen-Williams
      Hydraulic Timestep ................ 1.00 hrs
      Hydraulic Accuracy ................ 0.001000
      Status Check Frequency ............ 2
      Maximum Trials Checked ............ 10
      Damping Limit Threshold ........... 0.000000
      Maximum Trials .................... 40
      Quality Analysis .................. None
      Specific Gravity .................. 1.00
      Relative Kinematic Viscosity ...... 1.00
      Relative Chemical Diffusivity ..... 1.00
      Demand Multiplier ................. 1.00
      Total Duration .................... 1.00 hrs
      Reporting Criteria:
         All Nodes
         All Links
   
  Analysis begun Wed Oct 15 19:04:35 2025

   
  Hydraulic Status:
  -----------------------------------------------------------------------
     0:00:00: Balancing the network:
              Trial  1: relative flow change = 5.775612
              Trial  2: relative flow change = 0.000000
     0:00:00: Balanced after 2 trials
     0:00:00: Reservoir R1 is emptying
   
     1:00:00: Balancing the network:
              Trial  1: relative flow change = 0.000000
     1:00:00: Balanced after 1 trials
   
   
  Node Results at 0:00:00 hrs:
  ----------------------------------------------
                     Demand      Head  Pressure
  Node                 m3/d         m         m
  ----------------------------------------------
  J2                  10.00     30.34     20.33
  J3                   0.00     30.36     19.99
  J4                   0.00     30.34     20.11
  J5                   0.00     30.28     19.39
  J6                   0.00     30.27     20.04
  J7                  10.00     30.27     19.99
  J8                   0.00     30.27     16.77
  J9                  10.00     30.27     16.97
  J12                  0.00     30.23     12.46
  J14                 10.00     30.22     12.36
  J15                 10.00     30.22     12.95
  J16                  0.00     30.22     12.36
  J17                  0.00     30.26     16.27
  J18                  0.00     30.26     16.34
  J19                  0.00     30.22     12.36
  J20                 10.00     30.23     11.71
  J21                 10.00     30.27     20.93
  J22                 10.00     30.26     16.91
  J23                 10.00     30.26     17.66
  R1                 -90.00     30.37     -0.00  Reservoir
   
   
  Link Results at 0:00:00 hrs:
  ----------------------------------------------
                       Flow  Velocity  Headloss
  Link                 m3/d       m/s    /1000m
  ----------------------------------------------
  L1                  90.00      0.13      0.39
  L2                  10.00      0.01      0.01
  L3                  80.00      0.12      0.32
  L4                  60.00      0.09      0.19
  L5                  50.00      0.07      0.13
  L6                  40.00      0.06      0.09
  L7                  30.00      0.04      0.05
  L9                  10.00      0.01      0.01
  L10                 10.00      0.01      0.01
  L11                 20.00      0.03      0.02
  L12                 10.00      0.01      0.01
  L13                 10.00      0.01      0.01
  L14                 10.00      0.01      0.01
  L15                 20.00      0.03      0.02
  L16                 10.00      0.01      0.01
  L17                 10.00      0.01      0.01
  L18                 90.00      0.13      0.39
  L19                 10.00      0.01      0.02
  L20                 10.00      0.01      0.02
   
   
  Node Results at 1:00:00 hrs:
  ----------------------------------------------
                     Demand      Head  Pressure
  Node                 m3/d         m         m
  ----------------------------------------------
  J2                  10.00     30.34     20.33
  J3                   0.00     30.36     19.99
  J4                   0.00     30.34     20.11
  J5                   0.00     30.28     19.39
  J6                   0.00     30.27     20.04
  J7                  10.00     30.27     19.99
  J8                   0.00     30.27     16.77
  J9                  10.00     30.27     16.97
  J12                  0.00     30.23     12.46
  J14                 10.00     30.22     12.36
  J15                 10.00     30.22     12.95
  J16                  0.00     30.22     12.36
  J17                  0.00     30.26     16.27
  J18                  0.00     30.26     16.34
  J19                  0.00     30.22     12.36
  J20                 10.00     30.23     11.71
  J21                 10.00     30.27     20.93
  J22                 10.00     30.26     16.91
  J23                 10.00     30.26     17.66
  R1                 -90.00     30.37     -0.00  Reservoir
   
   
  Link Results at 1:00:00 hrs:
  ----------------------------------------------
                       Flow  Velocity  Headloss
  Link                 m3/d       m/s    /1000m
  ----------------------------------------------
  L1                  90.00      0.13      0.39
  L2                  10.00      0.01      0.01
  L3                  80.00      0.12      0.32
  L4                  60.00      0.09      0.19
  L5                  50.00      0.07      0.13
  L6                  40.00      0.06      0.09
  L7                  30.00      0.04      0.05
  L9                  10.00      0.01      0.01
  L10                 10.00      0.01      0.01
  L11                 20.00      0.03      0.02
  L12                 10.00      0.01      0.01
  L13                 10.00      0.01      0.01
  L14                 10.00      0.01      0.01
  L15                 20.00      0.03      0.02
  L16                 10.00      0.01      0.01
  L17                 10.00      0.01      0.01
  L18                 90.00      0.13      0.39
  L19                 10.00      0.01      0.02
  L20                 10.00      0.01      0.02
   
  Analysis ended Wed Oct 15 19:04:35 2025
